pcf
* control data
restart  estimation
    4   141     4     0     1
    1     1 double point   1   0   0
   5.0  2.0   0.3  0.03    10
  3.0   3.0 0.001  0
  0.1
   30  0.01     4     3  0.01     3
    1     1     1
* parameter groups
sd           relative 0.01  0.0  switch  2.0 parabolic
theta_s      relative 0.01  0.0  switch  2.0 parabolic
b            relative 0.01  0.0  switch  2.0 parabolic
psi_s        relative 0.01  0.0  switch  2.0 parabolic
* parameter data
sd          none relative   NaN  0.0   2.0  sd         1.0  0.0 1
theta_s     none relative   NaN  0.01  1    theta_s    1.0  0.0 1
b           none relative   NaN  0.01  20.0 b          1.0  0.0 1
psi_s       none relative   NaN  -1.0  -0.01  psi_s      1.0  0.0 1
* observation groups
storageobs
* observation data
e1    -98.6314587501    1.0   storageobs
e2    -93.2186785427    1.0   storageobs
e3    -89.0130546945    1.0   storageobs
e4    -84.3806731297    1.0   storageobs
e5    -80.0287346654    1.0   storageobs
e6    -80.3296196093    1.0   storageobs
e7    -77.5822024525    1.0   storageobs
e8    -74.8347852958    1.0   storageobs
e9    -72.087368139    1.0   storageobs
e10    -69.3399509822    1.0   storageobs
e11    -66.5925338254    1.0   storageobs
e12    -59.0614219584    1.0   storageobs
e13    -57.2970341962    1.0   storageobs
e14    -55.6820263639    1.0   storageobs
e15    -54.1545033081    1.0   storageobs
e16    -52.9534992725    1.0   storageobs
e17    -51.7524952369    1.0   storageobs
e18    -50.5514912013    1.0   storageobs
e19    -49.3504871657    1.0   storageobs
e20    -48.1494831301    1.0   storageobs
e21    -46.9484790945    1.0   storageobs
e22    -45.7474750589    1.0   storageobs
e23    -44.5464710234    1.0   storageobs
e24    -48.1877852957    1.0   storageobs
e25    -47.705186788    1.0   storageobs
e26    -47.2225882803    1.0   storageobs
e27    -46.7399897726    1.0   storageobs
e28    -46.2573912648    1.0   storageobs
e29    -45.3324266479    1.0   storageobs
e30    -44.8802292282    1.0   storageobs
e31    -44.4280318085    1.0   storageobs
e32    -43.9758343887    1.0   storageobs
e33    -43.523636969    1.0   storageobs
e34    -43.0714395493    1.0   storageobs
e35    -42.6192421296    1.0   storageobs
e36    -40.9424618373    1.0   storageobs
e37    -40.5525133966    1.0   storageobs
e38    -40.1625649558    1.0   storageobs
e39    -39.7726165151    1.0   storageobs
e40    -39.4777365125    1.0   storageobs
e41    -39.0091390309    1.0   storageobs
e42    -38.5405415493    1.0   storageobs
e43    -38.0719440676    1.0   storageobs
e44    -36.3587537145    1.0   storageobs
e45    -40.0334004652    1.0   storageobs
e46    -37.9856984717    1.0   storageobs
e47    -35.9379964782    1.0   storageobs
e48    -37.8192189619    1.0   storageobs
e49    -39.7752552758    1.0   storageobs
e50    -38.9819656614    1.0   storageobs
e51    -38.1886760471    1.0   storageobs
e52    -37.3953864327    1.0   storageobs
e53    -36.6020968183    1.0   storageobs
e54    -36.0330938224    1.0   storageobs
e55    -35.2565451937    1.0   storageobs
e56    -34.4799965649    1.0   storageobs
e57    -33.7034479362    1.0   storageobs
e58    -34.2855377116    1.0   storageobs
e59    -33.5921344419    1.0   storageobs
e60    -32.8987311723    1.0   storageobs
e61    -32.2053279026    1.0   storageobs
e62    -31.511924633    1.0   storageobs
e63    -30.8185213633    1.0   storageobs
e64    -30.1251180936    1.0   storageobs
e65    -29.431714824    1.0   storageobs
e66    -28.7383115543    1.0   storageobs
e67    -30.0825394394    1.0   storageobs
e68    -29.4169271175    1.0   storageobs
e69    -28.7513147956    1.0   storageobs
e70    -28.4890374274    1.0   storageobs
e71    -27.8288713812    1.0   storageobs
e72    -27.168705335    1.0   storageobs
e73    -27.2748341632    1.0   storageobs
e74    -26.6323161479    1.0   storageobs
e75    -25.9897981326    1.0   storageobs
e76    -27.8467388118    1.0   storageobs
e77    -29.633992045    1.0   storageobs
e78    -27.923190707    1.0   storageobs
e79    -26.212389369    1.0   storageobs
e80    -24.501588031    1.0   storageobs
e81    -22.790786693    1.0   storageobs
e82    -24.5780399262    1.0   storageobs
e83    -24.0332567786    1.0   storageobs
e84    -23.488473631    1.0   storageobs
e85    -22.9436904834    1.0   storageobs
e86    -22.3989073357    1.0   storageobs
e87    -21.8541241881    1.0   storageobs
e88    -18.6128940505    1.0   storageobs
e89    -20.1557680166    1.0   storageobs
e90    -19.0458675067    1.0   storageobs
e91    -17.9359669968    1.0   storageobs
e92    -16.8260664869    1.0   storageobs
e93    -18.2384241778    1.0   storageobs
e94    -17.0934497606    1.0   storageobs
e95    -15.9484753434    1.0   storageobs
e96    -14.8035009261    1.0   storageobs
e97    -13.6585265089    1.0   storageobs
e98    -18.4558916736    1.0   storageobs
e99    -18.0040729064    1.0   storageobs
e100    -17.6111275038    1.0   storageobs
e101    -17.0373947269    1.0   storageobs
e102    -16.6016753881    1.0   storageobs
e103    -16.1659560493    1.0   storageobs
e104    -15.7302367105    1.0   storageobs
e105    -15.2945173717    1.0   storageobs
e106    -14.858798033    1.0   storageobs
e107    -14.4230786942    1.0   storageobs
e108    -13.9873593554    1.0   storageobs
e109    -13.5516400166    1.0   storageobs
e110    -13.1159206778    1.0   storageobs
e111    -12.6802013391    1.0   storageobs
e112    -12.2444820003    1.0   storageobs
e113    -11.8087626615    1.0   storageobs
e114    -11.3730433227    1.0   storageobs
e115    -10.9373239839    1.0   storageobs
e116    -10.5016046452    1.0   storageobs
e117    -10.0658853064    1.0   storageobs
e118    -9.49215252943    1.0   storageobs
e119    -9.04109836418    1.0   storageobs
e120    -8.59004419894    1.0   storageobs
e121    -8.1389900337    1.0   storageobs
e122    -7.46415280993    1.0   storageobs
e123    -6.99506771898    1.0   storageobs
e124    -6.52598262803    1.0   storageobs
e125    -6.05689753708    1.0   storageobs
e126    -6.3011670224    1.0   storageobs
e127    -5.8810892209    1.0   storageobs
e128    -5.46101141941    1.0   storageobs
e129    -5.04093361792    1.0   storageobs
e130    -4.62085581643    1.0   storageobs
e131    -4.20077801493    1.0   storageobs
e132    -3.78070021344    1.0   storageobs
e133    -3.36062241195    1.0   storageobs
e134    -2.94054461045    1.0   storageobs
e135    -2.52046680896    1.0   storageobs
e136    -2.10038900747    1.0   storageobs
e137    -1.68031120597    1.0   storageobs
e138    -1.26023340448    1.0   storageobs
e139    -0.840155602986    1.0   storageobs
e140    -0.420077801493    1.0   storageobs
e141    1.7763568394e-15    1.0   storageobs
* model command line
bash simulate-rise.sh
* model input/output
rise_pars.yml.tpl  rise_pars.yml
rise_observations.ins  rise_observations.yml
* prior information
