pcf
* control data
restart  estimation
    4   204     4     0     1
    1     1 double point   1   0   0
   5.0  2.0   0.3  0.03    10
  3.0   3.0 0.001  0
  0.1
   30  0.01     4     3  0.01     3
    1     1     1
* parameter groups
sd           relative 0.01  0.0  switch  2.0 parabolic
theta_s      relative 0.01  0.0  switch  2.0 parabolic
b            relative 0.01  0.0  switch  2.0 parabolic
psi_s        relative 0.01  0.0  switch  2.0 parabolic
* parameter data
sd          none relative   NaN  0.0   2.0  sd         1.0  0.0 1
theta_s     none relative   NaN  0.01  1    theta_s    1.0  0.0 1
b           none relative   NaN  0.01  20.0 b          1.0  0.0 1
psi_s       none relative   NaN  -1.0  -0.01  psi_s      1.0  0.0 1
* observation groups
storageobs
* observation data
e1    -55.199    1.0   storageobs
e2    -55.09    1.0   storageobs
e3    -54.621    1.0   storageobs
e4    -54.153    1.0   storageobs
e5    -53.684    1.0   storageobs
e6    -53.216    1.0   storageobs
e7    -52.747    1.0   storageobs
e8    -52.278    1.0   storageobs
e9    -51.81    1.0   storageobs
e10    -51.341    1.0   storageobs
e11    -50.873    1.0   storageobs
e12    -47.991    1.0   storageobs
e13    -47.621    1.0   storageobs
e14    -47.251    1.0   storageobs
e15    -46.882    1.0   storageobs
e16    -46.512    1.0   storageobs
e17    -46.142    1.0   storageobs
e18    -45.553    1.0   storageobs
e19    -45.195    1.0   storageobs
e20    -44.837    1.0   storageobs
e21    -44.478    1.0   storageobs
e22    -44.12    1.0   storageobs
e23    -43.762    1.0   storageobs
e24    -43.404    1.0   storageobs
e25    -42.247    1.0   storageobs
e26    -41.939    1.0   storageobs
e27    -41.632    1.0   storageobs
e28    -41.324    1.0   storageobs
e29    -41.017    1.0   storageobs
e30    -40.709    1.0   storageobs
e31    -40.402    1.0   storageobs
e32    -40.094    1.0   storageobs
e33    -39.786    1.0   storageobs
e34    -39.479    1.0   storageobs
e35    -39.171    1.0   storageobs
e36    -38.864    1.0   storageobs
e37    -38.556    1.0   storageobs
e38    -38.249    1.0   storageobs
e39    -37.941    1.0   storageobs
e40    -37.634    1.0   storageobs
e41    -37.326    1.0   storageobs
e42    -37.018    1.0   storageobs
e43    -36.711    1.0   storageobs
e44    -36.403    1.0   storageobs
e45    -36.096    1.0   storageobs
e46    -35.788    1.0   storageobs
e47    -35.481    1.0   storageobs
e48    -35.173    1.0   storageobs
e49    -34.865    1.0   storageobs
e50    -34.558    1.0   storageobs
e51    -34.25    1.0   storageobs
e52    -33.916    1.0   storageobs
e53    -33.61    1.0   storageobs
e54    -33.303    1.0   storageobs
e55    -32.996    1.0   storageobs
e56    -32.69    1.0   storageobs
e57    -32.383    1.0   storageobs
e58    -32.076    1.0   storageobs
e59    -31.769    1.0   storageobs
e60    -31.463    1.0   storageobs
e61    -31.156    1.0   storageobs
e62    -30.849    1.0   storageobs
e63    -34.938    1.0   storageobs
e64    -34.781    1.0   storageobs
e65    -34.623    1.0   storageobs
e66    -34.466    1.0   storageobs
e67    -34.308    1.0   storageobs
e68    -37.166    1.0   storageobs
e69    -37.111    1.0   storageobs
e70    -37.056    1.0   storageobs
e71    -37.001    1.0   storageobs
e72    -36.946    1.0   storageobs
e73    -36.891    1.0   storageobs
e74    -36.836    1.0   storageobs
e75    -36.781    1.0   storageobs
e76    -36.726    1.0   storageobs
e77    -36.671    1.0   storageobs
e78    -36.616    1.0   storageobs
e79    -36.561    1.0   storageobs
e80    -36.506    1.0   storageobs
e81    -36.451    1.0   storageobs
e82    -36.396    1.0   storageobs
e83    -36.341    1.0   storageobs
e84    -36.286    1.0   storageobs
e85    -36.231    1.0   storageobs
e86    -36.176    1.0   storageobs
e87    -36.561    1.0   storageobs
e88    -36.515    1.0   storageobs
e89    -36.469    1.0   storageobs
e90    -36.423    1.0   storageobs
e91    -36.378    1.0   storageobs
e92    -36.332    1.0   storageobs
e93    -36.286    1.0   storageobs
e94    -36.24    1.0   storageobs
e95    -36.195    1.0   storageobs
e96    -36.149    1.0   storageobs
e97    -36.103    1.0   storageobs
e98    -36.057    1.0   storageobs
e99    -36.012    1.0   storageobs
e100    -38.782    1.0   storageobs
e101    -38.472    1.0   storageobs
e102    -37.554    1.0   storageobs
e103    -37.306    1.0   storageobs
e104    -37.057    1.0   storageobs
e105    -36.808    1.0   storageobs
e106    -36.56    1.0   storageobs
e107    -40.952    1.0   storageobs
e108    -40.57    1.0   storageobs
e109    -40.188    1.0   storageobs
e110    -39.806    1.0   storageobs
e111    -39.424    1.0   storageobs
e112    -39.042    1.0   storageobs
e113    -38.66    1.0   storageobs
e114    -37.102    1.0   storageobs
e115    -37.583    1.0   storageobs
e116    -37.328    1.0   storageobs
e117    -37.073    1.0   storageobs
e118    -37.148    1.0   storageobs
e119    -36.886    1.0   storageobs
e120    -36.997    1.0   storageobs
e121    -36.725    1.0   storageobs
e122    -36.453    1.0   storageobs
e123    -36.635    1.0   storageobs
e124    -36.412    1.0   storageobs
e125    -36.19    1.0   storageobs
e126    -35.967    1.0   storageobs
e127    -35.745    1.0   storageobs
e128    -35.323    1.0   storageobs
e129    -34.767    1.0   storageobs
e130    -34.529    1.0   storageobs
e131    -34.291    1.0   storageobs
e132    -34.053    1.0   storageobs
e133    -33.814    1.0   storageobs
e134    -33.576    1.0   storageobs
e135    -33.338    1.0   storageobs
e136    -33.1    1.0   storageobs
e137    -32.862    1.0   storageobs
e138    -32.624    1.0   storageobs
e139    -32.386    1.0   storageobs
e140    -32.147    1.0   storageobs
e141    -31.909    1.0   storageobs
e142    -31.671    1.0   storageobs
e143    -31.433    1.0   storageobs
e144    -31.195    1.0   storageobs
e145    -30.957    1.0   storageobs
e146    -30.719    1.0   storageobs
e147    -30.48    1.0   storageobs
e148    -30.242    1.0   storageobs
e149    -30.004    1.0   storageobs
e150    -29.766    1.0   storageobs
e151    -29.528    1.0   storageobs
e152    -30.023    1.0   storageobs
e153    -29.729    1.0   storageobs
e154    -29.434    1.0   storageobs
e155    -29.14    1.0   storageobs
e156    -28.845    1.0   storageobs
e157    -29.062    1.0   storageobs
e158    -28.719    1.0   storageobs
e159    -28.376    1.0   storageobs
e160    -28.032    1.0   storageobs
e161    -27.689    1.0   storageobs
e162    -27.346    1.0   storageobs
e163    -27.003    1.0   storageobs
e164    -26.66    1.0   storageobs
e165    -25.657    1.0   storageobs
e166    -25.279    1.0   storageobs
e167    -24.901    1.0   storageobs
e168    -24.523    1.0   storageobs
e169    -24.145    1.0   storageobs
e170    -23.768    1.0   storageobs
e171    -22.903    1.0   storageobs
e172    -22.492    1.0   storageobs
e173    -22.082    1.0   storageobs
e174    -21.671    1.0   storageobs
e175    -21.26    1.0   storageobs
e176    -20.849    1.0   storageobs
e177    -20.438    1.0   storageobs
e178    -20.028    1.0   storageobs
e179    -17.906    1.0   storageobs
e180    -16.887    1.0   storageobs
e181    -16.384    1.0   storageobs
e182    -15.881    1.0   storageobs
e183    -15.378    1.0   storageobs
e184    -14.875    1.0   storageobs
e185    -14.371    1.0   storageobs
e186    -13.868    1.0   storageobs
e187    -13.365    1.0   storageobs
e188    -12.862    1.0   storageobs
e189    -13.034    1.0   storageobs
e190    -13.767    1.0   storageobs
e191    -13.402    1.0   storageobs
e192    -13.037    1.0   storageobs
e193    -19.512    1.0   storageobs
e194    -19.306    1.0   storageobs
e195    -26.464    1.0   storageobs
e196    -24.393    1.0   storageobs
e197    -22.322    1.0   storageobs
e198    -20.251    1.0   storageobs
e199    -18.18    1.0   storageobs
e200    -16.109    1.0   storageobs
e201    -14.038    1.0   storageobs
e202    -6.1402    1.0   storageobs
e203    -3.0701    1.0   storageobs
e204    0    1.0   storageobs
* model command line
bash simulate-rise.sh
* model input/output
rise_pars.yml.tpl  rise_pars.yml
rise_observations.ins  rise_observations.yml
* prior information
