pcf
* control data
restart  estimation
    4   141     4     0     1
    1     1 double point   1   0   0
   5.0  2.0   0.3  0.03    10
  3.0   3.0 0.001  0
  0.1
   30  0.01     4     3  0.01     3
    1     1     1
* parameter groups
sd           relative 0.01  0.0  switch  2.0 parabolic
theta_s      relative 0.01  0.0  switch  2.0 parabolic
b            relative 0.01  0.0  switch  2.0 parabolic
psi_s        relative 0.01  0.0  switch  2.0 parabolic
* parameter data
sd          none relative   NaN  0.0   2.0  sd         1.0  0.0 1
theta_s     none relative   NaN  0.01  1    theta_s    1.0  0.0 1
b           none relative   NaN  0.01  20.0 b          1.0  0.0 1
psi_s       none relative   NaN  -1.0  -0.01  psi_s      1.0  0.0 1
* observation groups
storageobs
* observation data
e1    -98.63145875    1.0   storageobs
e2    -93.21867854    1.0   storageobs
e3    -89.01305469    1.0   storageobs
e4    -84.38067313    1.0   storageobs
e5    -80.02873467    1.0   storageobs
e6    -80.32961961    1.0   storageobs
e7    -77.58220245    1.0   storageobs
e8    -74.8347853    1.0   storageobs
e9    -72.08736814    1.0   storageobs
e10    -69.33995098    1.0   storageobs
e11    -66.59253383    1.0   storageobs
e12    -59.06142196    1.0   storageobs
e13    -57.2970342    1.0   storageobs
e14    -55.68202636    1.0   storageobs
e15    -54.15450331    1.0   storageobs
e16    -52.95349927    1.0   storageobs
e17    -51.75249524    1.0   storageobs
e18    -50.5514912    1.0   storageobs
e19    -49.35048717    1.0   storageobs
e20    -48.14948313    1.0   storageobs
e21    -46.94847909    1.0   storageobs
e22    -45.74747506    1.0   storageobs
e23    -44.54647102    1.0   storageobs
e24    -48.1877853    1.0   storageobs
e25    -47.70518679    1.0   storageobs
e26    -47.22258828    1.0   storageobs
e27    -46.73998977    1.0   storageobs
e28    -46.25739126    1.0   storageobs
e29    -45.33242665    1.0   storageobs
e30    -44.88022923    1.0   storageobs
e31    -44.42803181    1.0   storageobs
e32    -43.97583439    1.0   storageobs
e33    -43.52363697    1.0   storageobs
e34    -43.07143955    1.0   storageobs
e35    -42.61924213    1.0   storageobs
e36    -40.94246184    1.0   storageobs
e37    -40.5525134    1.0   storageobs
e38    -40.16256496    1.0   storageobs
e39    -39.77261652    1.0   storageobs
e40    -39.47773651    1.0   storageobs
e41    -39.00913903    1.0   storageobs
e42    -38.54054155    1.0   storageobs
e43    -38.07194407    1.0   storageobs
e44    -36.35875371    1.0   storageobs
e45    -40.03340047    1.0   storageobs
e46    -37.98569847    1.0   storageobs
e47    -35.93799648    1.0   storageobs
e48    -37.81921896    1.0   storageobs
e49    -39.77525528    1.0   storageobs
e50    -38.98196566    1.0   storageobs
e51    -38.18867605    1.0   storageobs
e52    -37.39538643    1.0   storageobs
e53    -36.60209682    1.0   storageobs
e54    -36.03309382    1.0   storageobs
e55    -35.25654519    1.0   storageobs
e56    -34.47999656    1.0   storageobs
e57    -33.70344794    1.0   storageobs
e58    -34.28553771    1.0   storageobs
e59    -33.59213444    1.0   storageobs
e60    -32.89873117    1.0   storageobs
e61    -32.2053279    1.0   storageobs
e62    -31.51192463    1.0   storageobs
e63    -30.81852136    1.0   storageobs
e64    -30.12511809    1.0   storageobs
e65    -29.43171482    1.0   storageobs
e66    -28.73831155    1.0   storageobs
e67    -30.08253944    1.0   storageobs
e68    -29.41692712    1.0   storageobs
e69    -28.7513148    1.0   storageobs
e70    -28.48903743    1.0   storageobs
e71    -27.82887138    1.0   storageobs
e72    -27.16870534    1.0   storageobs
e73    -27.27483416    1.0   storageobs
e74    -26.63231615    1.0   storageobs
e75    -25.98979813    1.0   storageobs
e76    -27.84673881    1.0   storageobs
e77    -29.63399204    1.0   storageobs
e78    -27.92319071    1.0   storageobs
e79    -26.21238937    1.0   storageobs
e80    -24.50158803    1.0   storageobs
e81    -22.79078669    1.0   storageobs
e82    -24.57803993    1.0   storageobs
e83    -24.03325678    1.0   storageobs
e84    -23.48847363    1.0   storageobs
e85    -22.94369048    1.0   storageobs
e86    -22.39890734    1.0   storageobs
e87    -21.85412419    1.0   storageobs
e88    -18.61289405    1.0   storageobs
e89    -20.15576802    1.0   storageobs
e90    -19.04586751    1.0   storageobs
e91    -17.935967    1.0   storageobs
e92    -16.82606649    1.0   storageobs
e93    -18.23842418    1.0   storageobs
e94    -17.09344976    1.0   storageobs
e95    -15.94847534    1.0   storageobs
e96    -14.80350093    1.0   storageobs
e97    -13.65852651    1.0   storageobs
e98    -18.45589167    1.0   storageobs
e99    -18.00407291    1.0   storageobs
e100    -17.6111275    1.0   storageobs
e101    -17.03739473    1.0   storageobs
e102    -16.60167539    1.0   storageobs
e103    -16.16595605    1.0   storageobs
e104    -15.73023671    1.0   storageobs
e105    -15.29451737    1.0   storageobs
e106    -14.85879803    1.0   storageobs
e107    -14.42307869    1.0   storageobs
e108    -13.98735936    1.0   storageobs
e109    -13.55164002    1.0   storageobs
e110    -13.11592068    1.0   storageobs
e111    -12.68020134    1.0   storageobs
e112    -12.244482    1.0   storageobs
e113    -11.80876266    1.0   storageobs
e114    -11.37304332    1.0   storageobs
e115    -10.93732398    1.0   storageobs
e116    -10.50160465    1.0   storageobs
e117    -10.06588531    1.0   storageobs
e118    -9.492152529    1.0   storageobs
e119    -9.041098364    1.0   storageobs
e120    -8.590044199    1.0   storageobs
e121    -8.138990034    1.0   storageobs
e122    -7.46415281    1.0   storageobs
e123    -6.995067719    1.0   storageobs
e124    -6.525982628    1.0   storageobs
e125    -6.056897537    1.0   storageobs
e126    -6.301167022    1.0   storageobs
e127    -5.881089221    1.0   storageobs
e128    -5.461011419    1.0   storageobs
e129    -5.040933618    1.0   storageobs
e130    -4.620855816    1.0   storageobs
e131    -4.200778015    1.0   storageobs
e132    -3.780700213    1.0   storageobs
e133    -3.360622412    1.0   storageobs
e134    -2.94054461    1.0   storageobs
e135    -2.520466809    1.0   storageobs
e136    -2.100389007    1.0   storageobs
e137    -1.680311206    1.0   storageobs
e138    -1.260233404    1.0   storageobs
e139    -0.840155603    1.0   storageobs
e140    -0.4200778015    1.0   storageobs
e141    1.776356839e-15    1.0   storageobs
* model command line
bash simulate-rise.sh
* model input/output
rise_pars.yml.tpl  rise_pars.yml
rise_observations.ins  rise_observations.yml
* prior information