pcf
* control data
restart  estimation
    4   201     4     0     1
    1     1 double point   1   0   0
   5.0  2.0   0.3  0.03    10
  3.0   3.0 0.001  0
  0.1
   30  0.01     4     3  0.01     3
    1     1     1
* parameter groups
sd           relative 0.01  0.0  switch  2.0 parabolic
theta_s      relative 0.01  0.0  switch  2.0 parabolic
b            relative 0.01  0.0  switch  2.0 parabolic
psi_s        relative 0.01  0.0  switch  2.0 parabolic
* parameter data
sd          none relative   NaN  0.0   2.0  sd         1.0  0.0 1
theta_s     none relative   NaN  0.01  1    theta_s    1.0  0.0 1
b           none relative   NaN  0.01  20.0 b          1.0  0.0 1
psi_s       none relative   NaN  -1.0  -0.01  psi_s      1.0  0.0 1
* observation groups
storageobs
* observation data
e1    -36.181745477196344    1.0   storageobs
e2    -36.023802618501954    1.0   storageobs
e3    -35.555222794410334    1.0   storageobs
e4    -35.086642970318699    1.0   storageobs
e5    -34.61806314622708    1.0   storageobs
e6    -34.149483322135445    1.0   storageobs
e7    -33.680903498043818    1.0   storageobs
e8    -33.212323673952191    1.0   storageobs
e9    -32.743743849860564    1.0   storageobs
e10    -32.27516402576893    1.0   storageobs
e11    -31.8065842016773    1.0   storageobs
e12    -28.752724397038552    1.0   storageobs
e13    -28.387468603667003    1.0   storageobs
e14    -28.022212810295454    1.0   storageobs
e15    -27.656957016923904    1.0   storageobs
e16    -27.291701223552362    1.0   storageobs
e17    -26.926445430180813    1.0   storageobs
e18    -26.338560149329197    1.0   storageobs
e19    -25.983994408998154    1.0   storageobs
e20    -25.62942866866711    1.0   storageobs
e21    -25.27486292833607    1.0   storageobs
e22    -24.92029718800503    1.0   storageobs
e23    -24.565731447673986    1.0   storageobs
e24    -24.211165707342946    1.0   storageobs
e25    -22.931367361151697    1.0   storageobs
e26    -22.63005560681448    1.0   storageobs
e27    -22.32874385247726    1.0   storageobs
e28    -22.027432098140039    1.0   storageobs
e29    -21.726120343802819    1.0   storageobs
e30    -21.424808589465595    1.0   storageobs
e31    -21.123496835128378    1.0   storageobs
e32    -20.822185080791158    1.0   storageobs
e33    -20.520873326453941    1.0   storageobs
e34    -20.219561572116717    1.0   storageobs
e35    -19.918249817779497    1.0   storageobs
e36    -19.616938063442277    1.0   storageobs
e37    -19.315626309105056    1.0   storageobs
e38    -19.014314554767839    1.0   storageobs
e39    -18.713002800430615    1.0   storageobs
e40    -18.411691046093395    1.0   storageobs
e41    -18.110379291756178    1.0   storageobs
e42    -17.809067537418958    1.0   storageobs
e43    -17.507755783081738    1.0   storageobs
e44    -17.206444028744514    1.0   storageobs
e45    -16.905132274407293    1.0   storageobs
e46    -16.603820520070077    1.0   storageobs
e47    -16.302508765732853    1.0   storageobs
e48    -16.001197011395632    1.0   storageobs
e49    -15.699885257058412    1.0   storageobs
e50    -15.398573502721192    1.0   storageobs
e51    -15.097261748383973    1.0   storageobs
e52    -14.785809144523634    1.0   storageobs
e53    -14.486596144952774    1.0   storageobs
e54    -14.187383145381915    1.0   storageobs
e55    -13.888170145811051    1.0   storageobs
e56    -13.58895714624019    1.0   storageobs
e57    -13.28974414666933    1.0   storageobs
e58    -12.990531147098469    1.0   storageobs
e59    -12.691318147527607    1.0   storageobs
e60    -12.392105147956746    1.0   storageobs
e61    -12.092892148385886    1.0   storageobs
e62    -11.793679148815025    1.0   storageobs
e63    -15.921909557779593    1.0   storageobs
e64    -15.773727662158031    1.0   storageobs
e65    -15.625545766536472    1.0   storageobs
e66    -15.477363870914916    1.0   storageobs
e67    -15.329181975293359    1.0   storageobs
e68    -18.260886659927291    1.0   storageobs
e69    -18.218396948523832    1.0   storageobs
e70    -18.175907237120374    1.0   storageobs
e71    -18.133417525716919    1.0   storageobs
e72    -18.09092781431346    1.0   storageobs
e73    -18.048438102910001    1.0   storageobs
e74    -18.005948391506543    1.0   storageobs
e75    -17.963458680103088    1.0   storageobs
e76    -17.920968968699629    1.0   storageobs
e77    -17.878479257296174    1.0   storageobs
e78    -17.835989545892716    1.0   storageobs
e79    -17.793499834489257    1.0   storageobs
e80    -17.751010123085802    1.0   storageobs
e81    -17.708520411682343    1.0   storageobs
e82    -17.666030700278888    1.0   storageobs
e83    -17.62354098887543    1.0   storageobs
e84    -17.581051277471975    1.0   storageobs
e85    -17.538561566068513    1.0   storageobs
e86    -17.496071854665058    1.0   storageobs
e87    -17.755069782617763    1.0   storageobs
e88    -17.718977066118232    1.0   storageobs
e89    -17.682884349618696    1.0   storageobs
e90    -17.646791633119165    1.0   storageobs
e91    -17.610698916619633    1.0   storageobs
e92    -17.574606200120098    1.0   storageobs
e93    -17.538513483620566    1.0   storageobs
e94    -17.502420767121031    1.0   storageobs
e95    -17.466328050621499    1.0   storageobs
e96    -17.430235334121967    1.0   storageobs
e97    -17.394142617622432    1.0   storageobs
e98    -17.3580499011229    1.0   storageobs
e99    -17.321957184623365    1.0   storageobs
e100    -20.210648413512036    1.0   storageobs
e101    -19.907460135007099    1.0   storageobs
e102    -19.13619492547318    1.0   storageobs
e103    -18.892418200211779    1.0   storageobs
e104    -18.648641474950374    1.0   storageobs
e105    -18.404864749688969    1.0   storageobs
e106    -18.161088024427567    1.0   storageobs
e107    -22.67048405705631    1.0   storageobs
e108    -22.291704040260431    1.0   storageobs
e109    -21.912924023464551    1.0   storageobs
e110    -21.534144006668672    1.0   storageobs
e111    -21.155363989872797    1.0   storageobs
e112    -20.776583973076917    1.0   storageobs
e113    -20.397803956281038    1.0   storageobs
e114    -18.878083330221479    1.0   storageobs
e115    -19.383555362667249    1.0   storageobs
e116    -19.132164284920766    1.0   storageobs
e117    -18.880773207174283    1.0   storageobs
e118    -19.005843315366313    1.0   storageobs
e119    -18.746704296920626    1.0   storageobs
e120    -18.914376137716999    1.0   storageobs
e121    -18.645068524367201    1.0   storageobs
e122    -18.375760911017402    1.0   storageobs
e123    -18.577828277778394    1.0   storageobs
e124    -18.358065041541213    1.0   storageobs
e125    -18.138301805304028    1.0   storageobs
e126    -17.918538569066843    1.0   storageobs
e127    -17.698775332829658    1.0   storageobs
e128    -17.416407380968074    1.0   storageobs
e129    -16.873338314842837    1.0   storageobs
e130    -16.637954977063959    1.0   storageobs
e131    -16.402571639285082    1.0   storageobs
e132    -16.167188301506208    1.0   storageobs
e133    -15.931804963727339    1.0   storageobs
e134    -15.696421625948464    1.0   storageobs
e135    -15.46103828816959    1.0   storageobs
e136    -15.225654950390714    1.0   storageobs
e137    -14.99027161261184    1.0   storageobs
e138    -14.754888274832963    1.0   storageobs
e139    -14.519504937054093    1.0   storageobs
e140    -14.284121599275215    1.0   storageobs
e141    -14.048738261496343    1.0   storageobs
e142    -13.813354923717469    1.0   storageobs
e143    -13.577971585938595    1.0   storageobs
e144    -13.34258824815972    1.0   storageobs
e145    -13.107204910380846    1.0   storageobs
e146    -12.871821572601972    1.0   storageobs
e147    -12.636438234823098    1.0   storageobs
e148    -12.401054897044222    1.0   storageobs
e149    -12.165671559265348    1.0   storageobs
e150    -11.930288221486476    1.0   storageobs
e151    -11.694904883707602    1.0   storageobs
e152    -12.197480967181955    1.0   storageobs
e153    -11.905369385435387    1.0   storageobs
e154    -11.613257803688818    1.0   storageobs
e155    -11.32114622194225    1.0   storageobs
e156    -11.029034640195681    1.0   storageobs
e157    -11.250359692607411    1.0   storageobs
e158    -10.909419043205782    1.0   storageobs
e159    -10.568478393804153    1.0   storageobs
e160    -10.227537744402525    1.0   storageobs
e161    -9.8865970950008943    1.0   storageobs
e162    -9.545656445599267    1.0   storageobs
e163    -9.2047157961976396    1.0   storageobs
e164    -8.8637751467960086    1.0   storageobs
e165    -7.887837059075447    1.0   storageobs
e166    -7.512471586689963    1.0   storageobs
e167    -7.1371061143044807    1.0   storageobs
e168    -6.7617406419189976    1.0   storageobs
e169    -6.3863751695335154    1.0   storageobs
e170    -6.011009697148034    1.0   storageobs
e171    -5.1601960358194798    1.0   storageobs
e172    -4.7521332558678973    1.0   storageobs
e173    -4.3440704759163138    1.0   storageobs
e174    -3.9360076959647299    1.0   storageobs
e175    -3.5279449160131486    1.0   storageobs
e176    -3.1198821360615647    1.0   storageobs
e177    -2.7118193561099808    1.0   storageobs
e178    -2.3037565761583991    1.0   storageobs
e179    -0.060182199047761863    1.0   storageobs
e180    0.95521235765358148    1.0   storageobs
e181    1.458366552183995    1.0   storageobs
e182    1.9615207467144078    1.0   storageobs
e183    2.4646749412448208    1.0   storageobs
e184    2.9678291357752351    1.0   storageobs
e185    3.4709833303056485    1.0   storageobs
e186    3.9741375248360611    1.0   storageobs
e187    4.4772917193664741    1.0   storageobs
e188    4.9804459138968875    1.0   storageobs
e189    4.8201134364587617    1.0   storageobs
e190    4.1076509678836501    1.0   storageobs
e191    4.4726471320468262    1.0   storageobs
e192    4.8376432962099996    1.0   storageobs
e193    -1.6541341835918271    1.0   storageobs
e194    -1.4473674106428489    1.0   storageobs
e195    -1.2406006376938712    1.0   storageobs
e196    -1.0338338647448913    1.0   storageobs
e197    -0.82706709179591309    1.0   storageobs
e198    -0.62030031884693537    1.0   storageobs
e199    -0.41353354589795721    1.0   storageobs
e200    -0.20676677294897949    1.0   storageobs
e201    4.4408920985006262e-16    1.0   storageobs
* model command line
bash simulate-rise.sh
* model input/output
rise_pars.yml.tpl  rise_pars.yml
rise_observations.ins  rise_observations.yml
* prior information
