pcf
* control data
restart  estimation
    6   141     1     0     1
    1     1 double point   1   0   0
   5.0  2.0   0.3  0.03    10
  3.0   3.0 0.001  0
  0.1
   30  0.01     4     3  0.01     3
    1     1     1
* parameter groups
sy_knot      relative 0.01  0.0  switch  2.0 parabolic
* parameter data
sy_knot_1   none relative   NaN  0.01  1    sy_knot    1.0  0.0 1
sy_knot_2   none relative   NaN  0.01  1    sy_knot    1.0  0.0 1
sy_knot_3   none relative   NaN  0.01  1    sy_knot    1.0  0.0 1
sy_knot_4   none relative   NaN  0.01  1    sy_knot    1.0  0.0 1
sy_knot_5   none relative   NaN  0.01  1    sy_knot    1.0  0.0 1
sy_knot_6   none relative   NaN  0.01  1    sy_knot    1.0  0.0 1
* observation groups
storageobs
* observation data
e1    -98.63145875005052687    1.0   storageobs
e2    -93.21867854271039278    1.0   storageobs
e3    -89.01305469447308383    1.0   storageobs
e4    -84.38067312973340961    1.0   storageobs
e5    -80.02873466541730352    1.0   storageobs
e6    -80.32961960932345846    1.0   storageobs
e7    -77.58220245253929193    1.0   storageobs
e8    -74.83478529575513960    1.0   storageobs
e9    -72.08736813897098727    1.0   storageobs
e10    -69.33995098218682074    1.0   storageobs
e11    -66.59253382540268262    1.0   storageobs
e12    -59.06142195844821430    1.0   storageobs
e13    -57.29703419618703464    1.0   storageobs
e14    -55.68202636393853311    1.0   storageobs
e15    -54.15450330807738055    1.0   storageobs
e16    -52.95349927248678767    1.0   storageobs
e17    -51.75249523689618769    1.0   storageobs
e18    -50.55149120130560192    1.0   storageobs
e19    -49.35048716571501615    1.0   storageobs
e20    -48.14948313012442327    1.0   storageobs
e21    -46.94847909453383039    1.0   storageobs
e22    -45.74747505894324462    1.0   storageobs
e23    -44.54647102335264464    1.0   storageobs
e24    -48.18778529569848956    1.0   storageobs
e25    -47.70518678798565304    1.0   storageobs
e26    -47.22258828027281652    1.0   storageobs
e27    -46.73998977255998000    1.0   storageobs
e28    -46.25739126484714347    1.0   storageobs
e29    -45.33242664788726728    1.0   storageobs
e30    -44.88022922816916349    1.0   storageobs
e31    -44.42803180845106681    1.0   storageobs
e32    -43.97583438873297013    1.0   storageobs
e33    -43.52363696901486634    1.0   storageobs
e34    -43.07143954929676966    1.0   storageobs
e35    -42.61924212957867297    1.0   storageobs
e36    -40.94246183732656164    1.0   storageobs
e37    -40.55251339658013876    1.0   storageobs
e38    -40.16256495583370878    1.0   storageobs
e39    -39.77261651508727880    1.0   storageobs
e40    -39.47773651252960292    1.0   storageobs
e41    -39.00913903090020085    1.0   storageobs
e42    -38.54054154927080589    1.0   storageobs
e43    -38.07194406764141092    1.0   storageobs
e44    -36.35875371446825000    1.0   storageobs
e45    -40.03340046522635731    1.0   storageobs
e46    -37.98569847172656466    1.0   storageobs
e47    -35.93799647822676491    1.0   storageobs
e48    -37.81921896190642940    1.0   storageobs
e49    -39.77525527583058818    1.0   storageobs
e50    -38.98196566144939368    1.0   storageobs
e51    -38.18867604706819208    1.0   storageobs
e52    -37.39538643268699758    1.0   storageobs
e53    -36.60209681830578177    1.0   storageobs
e54    -36.03309382240997394    1.0   storageobs
e55    -35.25654519366015194    1.0   storageobs
e56    -34.47999656491034415    1.0   storageobs
e57    -33.70344793616052215    1.0   storageobs
e58    -34.28553771159540986    1.0   storageobs
e59    -33.59213444193650844    1.0   storageobs
e60    -32.89873117227759991    1.0   storageobs
e61    -32.20532790261868428    1.0   storageobs
e62    -31.51192463295978996    1.0   storageobs
e63    -30.81852136330087788    1.0   storageobs
e64    -30.12511809364197291    1.0   storageobs
e65    -29.43171482398307148    1.0   storageobs
e66    -28.73831155432415940    1.0   storageobs
e67    -30.08253943938798614    1.0   storageobs
e68    -29.41692711748835976    1.0   storageobs
e69    -28.75131479558872982    1.0   storageobs
e70    -28.48903742735677724    1.0   storageobs
e71    -27.82887138119581394    1.0   storageobs
e72    -27.16870533503483642    1.0   storageobs
e73    -27.27483416316556131    1.0   storageobs
e74    -26.63231614786003831    1.0   storageobs
e75    -25.98979813255451887    1.0   storageobs
e76    -27.84673881181959132    1.0   storageobs
e77    -29.63399204495378214    1.0   storageobs
e78    -27.92319070697542571    1.0   storageobs
e79    -26.21238936899706573    1.0   storageobs
e80    -24.50158803101870575    1.0   storageobs
e81    -22.79078669304034932    1.0   storageobs
e82    -24.57803992617454014    1.0   storageobs
e83    -24.03325677856703280    1.0   storageobs
e84    -23.48847363095952190    1.0   storageobs
e85    -22.94369048335201455    1.0   storageobs
e86    -22.39890733574451076    1.0   storageobs
e87    -21.85412418813700342    1.0   storageobs
e88    -18.61289405054882451    1.0   storageobs
e89    -20.15576801663929629    1.0   storageobs
e90    -19.04586750673106721    1.0   storageobs
e91    -17.93596699682283457    1.0   storageobs
e92    -16.82606648691460194    1.0   storageobs
e93    -18.23842417781923331    1.0   storageobs
e94    -17.09344976058812904    1.0   storageobs
e95    -15.94847534335702832    1.0   storageobs
e96    -14.80350092612592405    1.0   storageobs
e97    -13.65852650889481978    1.0   storageobs
e98    -18.45589167364432015    1.0   storageobs
e99    -18.00407290640495361    1.0   storageobs
e100    -17.61112750381967373    1.0   storageobs
e101    -17.03739472686634926    1.0   storageobs
e102    -16.60167538808602927    1.0   storageobs
e103    -16.16595604930571284    1.0   storageobs
e104    -15.73023671052539285    1.0   storageobs
e105    -15.29451737174507286    1.0   storageobs
e106    -14.85879803296475643    1.0   storageobs
e107    -14.42307869418443644    1.0   storageobs
e108    -13.98735935540411823    1.0   storageobs
e109    -13.55164001662379825    1.0   storageobs
e110    -13.11592067784348181    1.0   storageobs
e111    -12.68020133906316005    1.0   storageobs
e112    -12.24448200028284184    1.0   storageobs
e113    -11.80876266150252540    1.0   storageobs
e114    -11.37304332272220542    1.0   storageobs
e115    -10.93732398394188721    1.0   storageobs
e116    -10.50160464516156722    1.0   storageobs
e117    -10.06588530638125079    1.0   storageobs
e118    -9.49215252942807197    1.0   storageobs
e119    -9.04109836418409252    1.0   storageobs
e120    -8.59004419894011484    1.0   storageobs
e121    -8.13899003369613894    1.0   storageobs
e122    -7.46415280993263064    1.0   storageobs
e123    -6.99506771898117297    1.0   storageobs
e124    -6.52598262802971885    1.0   storageobs
e125    -6.05689753707826650    1.0   storageobs
e126    -6.30116702239812554    1.0   storageobs
e127    -5.88108922090491948    1.0   storageobs
e128    -5.46101141941170898    1.0   storageobs
e129    -5.04093361791850203    1.0   storageobs
e130    -4.62085581642529153    1.0   storageobs
e131    -4.20077801493208458    1.0   storageobs
e132    -3.78070021343887408    1.0   storageobs
e133    -3.36062241194566713    1.0   storageobs
e134    -2.94054461045245663    1.0   storageobs
e135    -2.52046680895925057    1.0   storageobs
e136    -2.10038900746604007    1.0   storageobs
e137    -1.68031120597283312    1.0   storageobs
e138    -1.26023340447962262    1.0   storageobs
e139    -0.84015560298641567    1.0   storageobs
e140    -0.42007780149320517    1.0   storageobs
e141    0.00000000000000178    1.0   storageobs
* model command line
bash simulate-rise.sh
* model input/output
rise_pars.yml.tpl  rise_pars.yml
rise_observations.ins  rise_observations.yml
* prior information
