pcf
* control data
restart  estimation
    6   204     1     0     1
    1     1 double point   1   0   0
   5.0  2.0   0.3  0.03    10
  3.0   3.0 0.001  0
  0.1
   30  0.01     4     3  0.01     3
    1     1     1
* parameter groups
sy_knot      relative 0.01  0.0  switch  2.0 parabolic
* parameter data
sy_knot_1   none relative   NaN  0.01  1    sy_knot    1.0  0.0 1
sy_knot_2   none relative   NaN  0.01  1    sy_knot    1.0  0.0 1
sy_knot_3   none relative   NaN  0.01  1    sy_knot    1.0  0.0 1
sy_knot_4   none relative   NaN  0.01  1    sy_knot    1.0  0.0 1
sy_knot_5   none relative   NaN  0.01  1    sy_knot    1.0  0.0 1
sy_knot_6   none relative   NaN  0.01  1    sy_knot    1.0  0.0 1
* observation groups
storageobs
* observation data
e1    -55.19909595    1.0   storageobs
e2    -55.08984788    1.0   storageobs
e3    -54.62126806    1.0   storageobs
e4    -54.15268823    1.0   storageobs
e5    -53.68410841    1.0   storageobs
e6    -53.21552859    1.0   storageobs
e7    -52.74694876    1.0   storageobs
e8    -52.27836894    1.0   storageobs
e9    -51.80978911    1.0   storageobs
e10    -51.34120929    1.0   storageobs
e11    -50.87262947    1.0   storageobs
e12    -47.99098987    1.0   storageobs
e13    -47.62119065    1.0   storageobs
e14    -47.25139142    1.0   storageobs
e15    -46.8815922    1.0   storageobs
e16    -46.51179297    1.0   storageobs
e17    -46.14199375    1.0   storageobs
e18    -45.55295878    1.0   storageobs
e19    -45.19475829    1.0   storageobs
e20    -44.83655781    1.0   storageobs
e21    -44.47835732    1.0   storageobs
e22    -44.12015683    1.0   storageobs
e23    -43.76195635    1.0   storageobs
e24    -43.40375586    1.0   storageobs
e25    -42.24691009    1.0   storageobs
e26    -41.93935043    1.0   storageobs
e27    -41.63179078    1.0   storageobs
e28    -41.32423113    1.0   storageobs
e29    -41.01667148    1.0   storageobs
e30    -40.70911183    1.0   storageobs
e31    -40.40155218    1.0   storageobs
e32    -40.09399253    1.0   storageobs
e33    -39.78643288    1.0   storageobs
e34    -39.47887323    1.0   storageobs
e35    -39.17131357    1.0   storageobs
e36    -38.86375392    1.0   storageobs
e37    -38.55619427    1.0   storageobs
e38    -38.24863462    1.0   storageobs
e39    -37.94107497    1.0   storageobs
e40    -37.63351532    1.0   storageobs
e41    -37.32595567    1.0   storageobs
e42    -37.01839602    1.0   storageobs
e43    -36.71083637    1.0   storageobs
e44    -36.40327672    1.0   storageobs
e45    -36.09571706    1.0   storageobs
e46    -35.78815741    1.0   storageobs
e47    -35.48059776    1.0   storageobs
e48    -35.17303811    1.0   storageobs
e49    -34.86547846    1.0   storageobs
e50    -34.55791881    1.0   storageobs
e51    -34.25035916    1.0   storageobs
e52    -33.91643384    1.0   storageobs
e53    -33.60972336    1.0   storageobs
e54    -33.30301289    1.0   storageobs
e55    -32.99630241    1.0   storageobs
e56    -32.68959194    1.0   storageobs
e57    -32.38288146    1.0   storageobs
e58    -32.07617099    1.0   storageobs
e59    -31.76946051    1.0   storageobs
e60    -31.46275004    1.0   storageobs
e61    -31.15603956    1.0   storageobs
e62    -30.84932908    1.0   storageobs
e63    -34.93849184    1.0   storageobs
e64    -34.78093809    1.0   storageobs
e65    -34.62338435    1.0   storageobs
e66    -34.46583061    1.0   storageobs
e67    -34.30827687    1.0   storageobs
e68    -37.16603911    1.0   storageobs
e69    -37.11105361    1.0   storageobs
e70    -37.0560681    1.0   storageobs
e71    -37.0010826    1.0   storageobs
e72    -36.94609709    1.0   storageobs
e73    -36.89111159    1.0   storageobs
e74    -36.83612608    1.0   storageobs
e75    -36.78114058    1.0   storageobs
e76    -36.72615508    1.0   storageobs
e77    -36.67116957    1.0   storageobs
e78    -36.61618407    1.0   storageobs
e79    -36.56119856    1.0   storageobs
e80    -36.50621306    1.0   storageobs
e81    -36.45122755    1.0   storageobs
e82    -36.39624205    1.0   storageobs
e83    -36.34125654    1.0   storageobs
e84    -36.28627104    1.0   storageobs
e85    -36.23128553    1.0   storageobs
e86    -36.17630003    1.0   storageobs
e87    -36.5607201    1.0   storageobs
e88    -36.51497056    1.0   storageobs
e89    -36.46922101    1.0   storageobs
e90    -36.42347147    1.0   storageobs
e91    -36.37772193    1.0   storageobs
e92    -36.33197239    1.0   storageobs
e93    -36.28622284    1.0   storageobs
e94    -36.2404733    1.0   storageobs
e95    -36.19472376    1.0   storageobs
e96    -36.14897422    1.0   storageobs
e97    -36.10322467    1.0   storageobs
e98    -36.05747513    1.0   storageobs
e99    -36.01172559    1.0   storageobs
e100    -38.78187706    1.0   storageobs
e101    -38.4722509    1.0   storageobs
e102    -37.5542849    1.0   storageobs
e103    -37.30567976    1.0   storageobs
e104    -37.05707462    1.0   storageobs
e105    -36.80846949    1.0   storageobs
e106    -36.55986435    1.0   storageobs
e107    -40.95155865    1.0   storageobs
e108    -40.56955969    1.0   storageobs
e109    -40.18756073    1.0   storageobs
e110    -39.80556177    1.0   storageobs
e111    -39.42356281    1.0   storageobs
e112    -39.04156385    1.0   storageobs
e113    -38.65956489    1.0   storageobs
e114    -37.10191571    1.0   storageobs
e115    -37.58256374    1.0   storageobs
e116    -37.32795372    1.0   storageobs
e117    -37.0733437    1.0   storageobs
e118    -37.14825108    1.0   storageobs
e119    -36.88635297    1.0   storageobs
e120    -36.99674699    1.0   storageobs
e121    -36.72502517    1.0   storageobs
e122    -36.45330335    1.0   storageobs
e123    -36.63482258    1.0   storageobs
e124    -36.41230025    1.0   storageobs
e125    -36.18977793    1.0   storageobs
e126    -35.9672556    1.0   storageobs
e127    -35.74473327    1.0   storageobs
e128    -35.32342807    1.0   storageobs
e129    -34.76696011    1.0   storageobs
e130    -34.52881768    1.0   storageobs
e131    -34.29067525    1.0   storageobs
e132    -34.05253282    1.0   storageobs
e133    -33.81439039    1.0   storageobs
e134    -33.57624796    1.0   storageobs
e135    -33.33810553    1.0   storageobs
e136    -33.0999631    1.0   storageobs
e137    -32.86182067    1.0   storageobs
e138    -32.62367823    1.0   storageobs
e139    -32.3855358    1.0   storageobs
e140    -32.14739337    1.0   storageobs
e141    -31.90925094    1.0   storageobs
e142    -31.67110851    1.0   storageobs
e143    -31.43296608    1.0   storageobs
e144    -31.19482365    1.0   storageobs
e145    -30.95668122    1.0   storageobs
e146    -30.71853879    1.0   storageobs
e147    -30.48039636    1.0   storageobs
e148    -30.24225393    1.0   storageobs
e149    -30.00411149    1.0   storageobs
e150    -29.76596906    1.0   storageobs
e151    -29.52782663    1.0   storageobs
e152    -30.02322047    1.0   storageobs
e153    -29.72869468    1.0   storageobs
e154    -29.4341689    1.0   storageobs
e155    -29.13964311    1.0   storageobs
e156    -28.84511732    1.0   storageobs
e157    -29.06168989    1.0   storageobs
e158    -28.71860328    1.0   storageobs
e159    -28.37551667    1.0   storageobs
e160    -28.03243006    1.0   storageobs
e161    -27.68934345    1.0   storageobs
e162    -27.34625684    1.0   storageobs
e163    -27.00317023    1.0   storageobs
e164    -26.66008362    1.0   storageobs
e165    -25.65660722    1.0   storageobs
e166    -25.27882754    1.0   storageobs
e167    -24.90104787    1.0   storageobs
e168    -24.52326819    1.0   storageobs
e169    -24.14548851    1.0   storageobs
e170    -23.76770883    1.0   storageobs
e171    -22.90330136    1.0   storageobs
e172    -22.49247949    1.0   storageobs
e173    -22.08165762    1.0   storageobs
e174    -21.67083574    1.0   storageobs
e175    -21.26001387    1.0   storageobs
e176    -20.849192    1.0   storageobs
e177    -20.43837012    1.0   storageobs
e178    -20.02754825    1.0   storageobs
e179    -17.90569073    1.0   storageobs
e180    -16.88724887    1.0   storageobs
e181    -16.38409467    1.0   storageobs
e182    -15.88094048    1.0   storageobs
e183    -15.37778629    1.0   storageobs
e184    -14.87463209    1.0   storageobs
e185    -14.3714779    1.0   storageobs
e186    -13.8683237    1.0   storageobs
e187    -13.36516951    1.0   storageobs
e188    -12.86201531    1.0   storageobs
e189    -13.03426873    1.0   storageobs
e190    -13.76731726    1.0   storageobs
e191    -13.40232109    1.0   storageobs
e192    -13.03732493    1.0   storageobs
e193    -19.51229143    1.0   storageobs
e194    -19.30552466    1.0   storageobs
e195    -26.46429777    1.0   storageobs
e196    -24.39322377    1.0   storageobs
e197    -22.32214977    1.0   storageobs
e198    -20.25107576    1.0   storageobs
e199    -18.18000176    1.0   storageobs
e200    -16.10892776    1.0   storageobs
e201    -14.03785376    1.0   storageobs
e202    -6.14017624    1.0   storageobs
e203    -3.07008812    1.0   storageobs
e204    0    1.0   storageobs
* model command line
bash simulate-rise.sh
* model input/output
rise_pars.yml.tpl  rise_pars.yml
rise_observations.ins  rise_observations.yml
* prior information