pcf
* control data
restart  estimation
    6   204     1     0     1
    1     1 double point   1   0   0
   5.0  2.0   0.3  0.03    10
  3.0   3.0 0.001  0
  0.1
   30  0.01     4     3  0.01     3
    1     1     1
* parameter groups
sy_knot      relative 0.01  0.0  switch  2.0 parabolic
* parameter data
sy_knot_1   none relative   NaN  0.01  1    sy_knot    1.0  0.0 1
sy_knot_2   none relative   NaN  0.01  1    sy_knot    1.0  0.0 1
sy_knot_3   none relative   NaN  0.01  1    sy_knot    1.0  0.0 1
sy_knot_4   none relative   NaN  0.01  1    sy_knot    1.0  0.0 1
sy_knot_5   none relative   NaN  0.01  1    sy_knot    1.0  0.0 1
sy_knot_6   none relative   NaN  0.01  1    sy_knot    1.0  0.0 1
* observation groups
storageobs
* observation data
e1    -55.19909594896827087    1.0   storageobs
e2    -55.08984788243525799    1.0   storageobs
e3    -54.62126805834362386    1.0   storageobs
e4    -54.15268823425199685    1.0   storageobs
e5    -53.68410841016036983    1.0   storageobs
e6    -53.21552858606873571    1.0   storageobs
e7    -52.74694876197710869    1.0   storageobs
e8    -52.27836893788548878    1.0   storageobs
e9    -51.80978911379386176    1.0   storageobs
e10    -51.34120928970222764    1.0   storageobs
e11    -50.87262946561060062    1.0   storageobs
e12    -47.99098987450833675    1.0   storageobs
e13    -47.62119064910448429    1.0   storageobs
e14    -47.25139142370063894    1.0   storageobs
e15    -46.88159219829678648    1.0   storageobs
e16    -46.51179297289294112    1.0   storageobs
e17    -46.14199374748909577    1.0   storageobs
e18    -45.55295877847669317    1.0   storageobs
e19    -45.19475829251980770    1.0   storageobs
e20    -44.83655780656292222    1.0   storageobs
e21    -44.47835732060603675    1.0   storageobs
e22    -44.12015683464916549    1.0   storageobs
e23    -43.76195634869227291    1.0   storageobs
e24    -43.40375586273539454    1.0   storageobs
e25    -42.24691008514597712    1.0   storageobs
e26    -41.93935043412444230    1.0   storageobs
e27    -41.63179078310291459    1.0   storageobs
e28    -41.32423113208137266    1.0   storageobs
e29    -41.01667148105984495    1.0   storageobs
e30    -40.70911183003831724    1.0   storageobs
e31    -40.40155217901678242    1.0   storageobs
e32    -40.09399252799524760    1.0   storageobs
e33    -39.78643287697371278    1.0   storageobs
e34    -39.47887322595218507    1.0   storageobs
e35    -39.17131357493065025    1.0   storageobs
e36    -38.86375392390911543    1.0   storageobs
e37    -38.55619427288758772    1.0   storageobs
e38    -38.24863462186605290    1.0   storageobs
e39    -37.94107497084451808    1.0   storageobs
e40    -37.63351531982299036    1.0   storageobs
e41    -37.32595566880144844    1.0   storageobs
e42    -37.01839601777992073    1.0   storageobs
e43    -36.71083636675837880    1.0   storageobs
e44    -36.40327671573685819    1.0   storageobs
e45    -36.09571706471532337    1.0   storageobs
e46    -35.78815741369379566    1.0   storageobs
e47    -35.48059776267225374    1.0   storageobs
e48    -35.17303811165072602    1.0   storageobs
e49    -34.86547846062919120    1.0   storageobs
e50    -34.55791880960765639    1.0   storageobs
e51    -34.25035915858612157    1.0   storageobs
e52    -33.91643383981832471    1.0   storageobs
e53    -33.60972336422629780    1.0   storageobs
e54    -33.30301288863425668    1.0   storageobs
e55    -32.99630241304222267    1.0   storageobs
e56    -32.68959193745018865    1.0   storageobs
e57    -32.38288146185814753    1.0   storageobs
e58    -32.07617098626611352    1.0   storageobs
e59    -31.76946051067407240    1.0   storageobs
e60    -31.46275003508204193    1.0   storageobs
e61    -31.15603955949000436    1.0   storageobs
e62    -30.84932908389797035    1.0   storageobs
e63    -34.93849183515495582    1.0   storageobs
e64    -34.78093809450692220    1.0   storageobs
e65    -34.62338435385890278    1.0   storageobs
e66    -34.46583061321086916    1.0   storageobs
e67    -34.30827687256284264    1.0   storageobs
e68    -37.16603911349930200    1.0   storageobs
e69    -37.11105360872722514    1.0   storageobs
e70    -37.05606810395514117    1.0   storageobs
e71    -37.00108259918306430    1.0   storageobs
e72    -36.94609709441097323    1.0   storageobs
e73    -36.89111158963888926    1.0   storageobs
e74    -36.83612608486681239    1.0   storageobs
e75    -36.78114058009473553    1.0   storageobs
e76    -36.72615507532265156    1.0   storageobs
e77    -36.67116957055056048    1.0   storageobs
e78    -36.61618406577847651    1.0   storageobs
e79    -36.56119856100639964    1.0   storageobs
e80    -36.50621305623432278    1.0   storageobs
e81    -36.45122755146223881    1.0   storageobs
e82    -36.39624204669015484    1.0   storageobs
e83    -36.34125654191807797    1.0   storageobs
e84    -36.28627103714598690    1.0   storageobs
e85    -36.23128553237391003    1.0   storageobs
e86    -36.17630002760182606    1.0   storageobs
e87    -36.56072009777557241    1.0   storageobs
e88    -36.51497055528770375    1.0   storageobs
e89    -36.46922101279983508    1.0   storageobs
e90    -36.42347147031196641    1.0   storageobs
e91    -36.37772192782409775    1.0   storageobs
e92    -36.33197238533623619    1.0   storageobs
e93    -36.28622284284836752    1.0   storageobs
e94    -36.24047330036050596    1.0   storageobs
e95    -36.19472375787263729    1.0   storageobs
e96    -36.14897421538476863    1.0   storageobs
e97    -36.10322467289689996    1.0   storageobs
e98    -36.05747513040903129    1.0   storageobs
e99    -36.01172558792116263    1.0   storageobs
e100    -38.78187706274569990    1.0   storageobs
e101    -38.47225090024853955    1.0   storageobs
e102    -37.55428490134269737    1.0   storageobs
e103    -37.30567976308712730    1.0   storageobs
e104    -37.05707462483155723    1.0   storageobs
e105    -36.80846948657598716    1.0   storageobs
e106    -36.55986434832041709    1.0   storageobs
e107    -40.95155864718287830    1.0   storageobs
e108    -40.56955968839088911    1.0   storageobs
e109    -40.18756072959889991    1.0   storageobs
e110    -39.80556177080691072    1.0   storageobs
e111    -39.42356281201492152    1.0   storageobs
e112    -39.04156385322293232    1.0   storageobs
e113    -38.65956489443095023    1.0   storageobs
e114    -37.10191571360376628    1.0   storageobs
e115    -37.58256373577012255    1.0   storageobs
e116    -37.32795371602752965    1.0   storageobs
e117    -37.07334369628493675    1.0   storageobs
e118    -37.14825107698781181    1.0   storageobs
e119    -36.88635296540258679    1.0   storageobs
e120    -36.99674698913125326    1.0   storageobs
e121    -36.72502516928437188    1.0   storageobs
e122    -36.45330334943749051    1.0   storageobs
e123    -36.63482258398929758    1.0   storageobs
e124    -36.41230025461258180    1.0   storageobs
e125    -36.18977792523586601    1.0   storageobs
e126    -35.96725559585915732    1.0   storageobs
e127    -35.74473326648244864    1.0   storageobs
e128    -35.32342806861081641    1.0   storageobs
e129    -34.76696011323934243    1.0   storageobs
e130    -34.52881768232094117    1.0   storageobs
e131    -34.29067525140254702    1.0   storageobs
e132    -34.05253282048413865    1.0   storageobs
e133    -33.81439038956574450    1.0   storageobs
e134    -33.57624795864734324    1.0   storageobs
e135    -33.33810552772894908    1.0   storageobs
e136    -33.09996309681054782    1.0   storageobs
e137    -32.86182066589215367    1.0   storageobs
e138    -32.62367823497375241    1.0   storageobs
e139    -32.38553580405535115    1.0   storageobs
e140    -32.14739337313695700    1.0   storageobs
e141    -31.90925094221855929    1.0   storageobs
e142    -31.67110851130015803    1.0   storageobs
e143    -31.43296608038176387    1.0   storageobs
e144    -31.19482364946335906    1.0   storageobs
e145    -30.95668121854496491    1.0   storageobs
e146    -30.71853878762656720    1.0   storageobs
e147    -30.48039635670816594    1.0   storageobs
e148    -30.24225392578977178    1.0   storageobs
e149    -30.00411149487137052    1.0   storageobs
e150    -29.76596906395297637    1.0   storageobs
e151    -29.52782663303457866    1.0   storageobs
e152    -30.02322047245450776    1.0   storageobs
e153    -29.72869468421085770    1.0   storageobs
e154    -29.43416889596720054    1.0   storageobs
e155    -29.13964310772355049    1.0   storageobs
e156    -28.84511731947989688    1.0   storageobs
e157    -29.06168989171156625    1.0   storageobs
e158    -28.71860328097919535    1.0   storageobs
e159    -28.37551667024682800    1.0   storageobs
e160    -28.03243005951445355    1.0   storageobs
e161    -27.68934344878208620    1.0   storageobs
e162    -27.34625683804971885    1.0   storageobs
e163    -27.00317022731734440    1.0   storageobs
e164    -26.66008361658497705    1.0   storageobs
e165    -25.65660722362464696    1.0   storageobs
e166    -25.27882754474208582    1.0   storageobs
e167    -24.90104786585951757    1.0   storageobs
e168    -24.52326818697695643    1.0   storageobs
e169    -24.14548850809438818    1.0   storageobs
e170    -23.76770882921181993    1.0   storageobs
e171    -22.90330136291060370    1.0   storageobs
e172    -22.49247948981949463    1.0   storageobs
e173    -22.08165761672838912    1.0   storageobs
e174    -21.67083574363727649    1.0   storageobs
e175    -21.26001387054617453    1.0   storageobs
e176    -20.84919199745506191    1.0   storageobs
e177    -20.43837012436395639    1.0   storageobs
e178    -20.02754825127285088    1.0   storageobs
e179    -17.90569072956423824    1.0   storageobs
e180    -16.88724886923355228    1.0   storageobs
e181    -16.38409467470314240    1.0   storageobs
e182    -15.88094048017273074    1.0   storageobs
e183    -15.37778628564231553    1.0   storageobs
e184    -14.87463209111190210    1.0   storageobs
e185    -14.37147789658148689    1.0   storageobs
e186    -13.86832370205107523    1.0   storageobs
e187    -13.36516950752066180    1.0   storageobs
e188    -12.86201531299025191    1.0   storageobs
e189    -13.03426873493308946    1.0   storageobs
e190    -13.76731725742538082    1.0   storageobs
e191    -13.40232109326220211    1.0   storageobs
e192    -13.03732492909902874    1.0   storageobs
e193    -19.51229142892693602    1.0   storageobs
e194    -19.30552465597795830    1.0   storageobs
e195    -26.46429777333938560    1.0   storageobs
e196    -24.39322377043679069    1.0   storageobs
e197    -22.32214976753419577    1.0   storageobs
e198    -20.25107576463160086    1.0   storageobs
e199    -18.18000176172900595    1.0   storageobs
e200    -16.10892775882641104    1.0   storageobs
e201    -14.03785375592381435    1.0   storageobs
e202    -6.14017624048840283    1.0   storageobs
e203    -3.07008812024420052    1.0   storageobs
e204    0.00000000000000000    1.0   storageobs
* model command line
bash simulate-rise.sh
* model input/output
rise_pars.yml.tpl  rise_pars.yml
rise_observations.ins  rise_observations.yml
* prior information
