pcf
* control data
restart  estimation
   11   589     3     0     2
    1     1 double point   1   0   0
   5.0  2.0   0.3  0.03    10
  3.0   3.0 0.001  0
  0.1
   30  0.01     4     3  0.01     3
    1     1     1
* parameter groups
sy_knot      relative 0.01  0.0  switch  2.0 parabolic
k_knot       relative 0.01  0.0  switch  2.0 parabolic
T_min        relative 0.01  0.0  switch  2.0 parabolic
* parameter data
sy_knot_1  none relative  NaN  0.01     1       sy_knot  1.0  0.0  1
sy_knot_2  none relative  NaN  0.01     1       sy_knot  1.0  0.0  1
sy_knot_3  none relative  NaN  0.01     1       sy_knot  1.0  0.0  1
sy_knot_4  none relative  NaN  0.01     1       sy_knot  1.0  0.0  1
sy_knot_5  none relative  NaN  0.01     1       sy_knot  1.0  0.0  1
sy_knot_6  none relative  NaN  0.01     1       sy_knot  1.0  0.0  1
k_knot_1   log  factor    NaN  1.0e-04  1.0e+5  k_knot   1.0  0.0  1
k_knot_2   log  factor    NaN  1.0e-04  1.0e+5  k_knot   1.0  0.0  1
k_knot_3   log  factor    NaN  1.0e-04  1.0e+5  k_knot   1.0  0.0  1
k_knot_4   log  factor    NaN  1.0e-04  1.0e+5  k_knot   1.0  0.0  1
T_min      log  factor    NaN  1.0e-04  1.0e+5  T_min    1.0  0.0  1
* observation groups
storageobs
timeobs
* observation data
e1    -36.181745477196344    1.0   storageobs
e2    -36.023802618501954    1.0   storageobs
e3    -35.555222794410334    1.0   storageobs
e4    -35.086642970318699    1.0   storageobs
e5    -34.61806314622708    1.0   storageobs
e6    -34.149483322135445    1.0   storageobs
e7    -33.680903498043818    1.0   storageobs
e8    -33.212323673952191    1.0   storageobs
e9    -32.743743849860564    1.0   storageobs
e10    -32.27516402576893    1.0   storageobs
e11    -31.8065842016773    1.0   storageobs
e12    -28.752724397038552    1.0   storageobs
e13    -28.387468603667003    1.0   storageobs
e14    -28.022212810295454    1.0   storageobs
e15    -27.656957016923904    1.0   storageobs
e16    -27.291701223552362    1.0   storageobs
e17    -26.926445430180813    1.0   storageobs
e18    -26.338560149329197    1.0   storageobs
e19    -25.983994408998154    1.0   storageobs
e20    -25.62942866866711    1.0   storageobs
e21    -25.27486292833607    1.0   storageobs
e22    -24.92029718800503    1.0   storageobs
e23    -24.565731447673986    1.0   storageobs
e24    -24.211165707342946    1.0   storageobs
e25    -22.931367361151697    1.0   storageobs
e26    -22.63005560681448    1.0   storageobs
e27    -22.32874385247726    1.0   storageobs
e28    -22.027432098140039    1.0   storageobs
e29    -21.726120343802819    1.0   storageobs
e30    -21.424808589465595    1.0   storageobs
e31    -21.123496835128378    1.0   storageobs
e32    -20.822185080791158    1.0   storageobs
e33    -20.520873326453941    1.0   storageobs
e34    -20.219561572116717    1.0   storageobs
e35    -19.918249817779497    1.0   storageobs
e36    -19.616938063442277    1.0   storageobs
e37    -19.315626309105056    1.0   storageobs
e38    -19.014314554767839    1.0   storageobs
e39    -18.713002800430615    1.0   storageobs
e40    -18.411691046093395    1.0   storageobs
e41    -18.110379291756178    1.0   storageobs
e42    -17.809067537418958    1.0   storageobs
e43    -17.507755783081738    1.0   storageobs
e44    -17.206444028744514    1.0   storageobs
e45    -16.905132274407293    1.0   storageobs
e46    -16.603820520070077    1.0   storageobs
e47    -16.302508765732853    1.0   storageobs
e48    -16.001197011395632    1.0   storageobs
e49    -15.699885257058412    1.0   storageobs
e50    -15.398573502721192    1.0   storageobs
e51    -15.097261748383973    1.0   storageobs
e52    -14.785809144523634    1.0   storageobs
e53    -14.486596144952774    1.0   storageobs
e54    -14.187383145381915    1.0   storageobs
e55    -13.888170145811051    1.0   storageobs
e56    -13.58895714624019    1.0   storageobs
e57    -13.28974414666933    1.0   storageobs
e58    -12.990531147098469    1.0   storageobs
e59    -12.691318147527607    1.0   storageobs
e60    -12.392105147956746    1.0   storageobs
e61    -12.092892148385886    1.0   storageobs
e62    -11.793679148815025    1.0   storageobs
e63    -15.921909557779593    1.0   storageobs
e64    -15.773727662158031    1.0   storageobs
e65    -15.625545766536472    1.0   storageobs
e66    -15.477363870914916    1.0   storageobs
e67    -15.329181975293359    1.0   storageobs
e68    -18.260886659927291    1.0   storageobs
e69    -18.218396948523832    1.0   storageobs
e70    -18.175907237120374    1.0   storageobs
e71    -18.133417525716919    1.0   storageobs
e72    -18.09092781431346    1.0   storageobs
e73    -18.048438102910001    1.0   storageobs
e74    -18.005948391506543    1.0   storageobs
e75    -17.963458680103088    1.0   storageobs
e76    -17.920968968699629    1.0   storageobs
e77    -17.878479257296174    1.0   storageobs
e78    -17.835989545892716    1.0   storageobs
e79    -17.793499834489257    1.0   storageobs
e80    -17.751010123085802    1.0   storageobs
e81    -17.708520411682343    1.0   storageobs
e82    -17.666030700278888    1.0   storageobs
e83    -17.62354098887543    1.0   storageobs
e84    -17.581051277471975    1.0   storageobs
e85    -17.538561566068513    1.0   storageobs
e86    -17.496071854665058    1.0   storageobs
e87    -17.755069782617763    1.0   storageobs
e88    -17.718977066118232    1.0   storageobs
e89    -17.682884349618696    1.0   storageobs
e90    -17.646791633119165    1.0   storageobs
e91    -17.610698916619633    1.0   storageobs
e92    -17.574606200120098    1.0   storageobs
e93    -17.538513483620566    1.0   storageobs
e94    -17.502420767121031    1.0   storageobs
e95    -17.466328050621499    1.0   storageobs
e96    -17.430235334121967    1.0   storageobs
e97    -17.394142617622432    1.0   storageobs
e98    -17.3580499011229    1.0   storageobs
e99    -17.321957184623365    1.0   storageobs
e100    -20.210648413512036    1.0   storageobs
e101    -19.907460135007099    1.0   storageobs
e102    -19.13619492547318    1.0   storageobs
e103    -18.892418200211779    1.0   storageobs
e104    -18.648641474950374    1.0   storageobs
e105    -18.404864749688969    1.0   storageobs
e106    -18.161088024427567    1.0   storageobs
e107    -22.67048405705631    1.0   storageobs
e108    -22.291704040260431    1.0   storageobs
e109    -21.912924023464551    1.0   storageobs
e110    -21.534144006668672    1.0   storageobs
e111    -21.155363989872797    1.0   storageobs
e112    -20.776583973076917    1.0   storageobs
e113    -20.397803956281038    1.0   storageobs
e114    -18.878083330221479    1.0   storageobs
e115    -19.383555362667249    1.0   storageobs
e116    -19.132164284920766    1.0   storageobs
e117    -18.880773207174283    1.0   storageobs
e118    -19.005843315366313    1.0   storageobs
e119    -18.746704296920626    1.0   storageobs
e120    -18.914376137716999    1.0   storageobs
e121    -18.645068524367201    1.0   storageobs
e122    -18.375760911017402    1.0   storageobs
e123    -18.577828277778394    1.0   storageobs
e124    -18.358065041541213    1.0   storageobs
e125    -18.138301805304028    1.0   storageobs
e126    -17.918538569066843    1.0   storageobs
e127    -17.698775332829658    1.0   storageobs
e128    -17.416407380968074    1.0   storageobs
e129    -16.873338314842837    1.0   storageobs
e130    -16.637954977063959    1.0   storageobs
e131    -16.402571639285082    1.0   storageobs
e132    -16.167188301506208    1.0   storageobs
e133    -15.931804963727339    1.0   storageobs
e134    -15.696421625948464    1.0   storageobs
e135    -15.46103828816959    1.0   storageobs
e136    -15.225654950390714    1.0   storageobs
e137    -14.99027161261184    1.0   storageobs
e138    -14.754888274832963    1.0   storageobs
e139    -14.519504937054093    1.0   storageobs
e140    -14.284121599275215    1.0   storageobs
e141    -14.048738261496343    1.0   storageobs
e142    -13.813354923717469    1.0   storageobs
e143    -13.577971585938595    1.0   storageobs
e144    -13.34258824815972    1.0   storageobs
e145    -13.107204910380846    1.0   storageobs
e146    -12.871821572601972    1.0   storageobs
e147    -12.636438234823098    1.0   storageobs
e148    -12.401054897044222    1.0   storageobs
e149    -12.165671559265348    1.0   storageobs
e150    -11.930288221486476    1.0   storageobs
e151    -11.694904883707602    1.0   storageobs
e152    -12.197480967181955    1.0   storageobs
e153    -11.905369385435387    1.0   storageobs
e154    -11.613257803688818    1.0   storageobs
e155    -11.32114622194225    1.0   storageobs
e156    -11.029034640195681    1.0   storageobs
e157    -11.250359692607411    1.0   storageobs
e158    -10.909419043205782    1.0   storageobs
e159    -10.568478393804153    1.0   storageobs
e160    -10.227537744402525    1.0   storageobs
e161    -9.8865970950008943    1.0   storageobs
e162    -9.545656445599267    1.0   storageobs
e163    -9.2047157961976396    1.0   storageobs
e164    -8.8637751467960086    1.0   storageobs
e165    -7.887837059075447    1.0   storageobs
e166    -7.512471586689963    1.0   storageobs
e167    -7.1371061143044807    1.0   storageobs
e168    -6.7617406419189976    1.0   storageobs
e169    -6.3863751695335154    1.0   storageobs
e170    -6.011009697148034    1.0   storageobs
e171    -5.1601960358194798    1.0   storageobs
e172    -4.7521332558678973    1.0   storageobs
e173    -4.3440704759163138    1.0   storageobs
e174    -3.9360076959647299    1.0   storageobs
e175    -3.5279449160131486    1.0   storageobs
e176    -3.1198821360615647    1.0   storageobs
e177    -2.7118193561099808    1.0   storageobs
e178    -2.3037565761583991    1.0   storageobs
e179    -0.060182199047761863    1.0   storageobs
e180    0.95521235765358148    1.0   storageobs
e181    1.458366552183995    1.0   storageobs
e182    1.9615207467144078    1.0   storageobs
e183    2.4646749412448208    1.0   storageobs
e184    2.9678291357752351    1.0   storageobs
e185    3.4709833303056485    1.0   storageobs
e186    3.9741375248360611    1.0   storageobs
e187    4.4772917193664741    1.0   storageobs
e188    4.9804459138968875    1.0   storageobs
e189    4.8201134364587617    1.0   storageobs
e190    4.1076509678836501    1.0   storageobs
e191    4.4726471320468262    1.0   storageobs
e192    4.8376432962099996    1.0   storageobs
e193    -1.6541341835918271    1.0   storageobs
e194    -1.4473674106428489    1.0   storageobs
e195    -1.2406006376938712    1.0   storageobs
e196    -1.0338338647448913    1.0   storageobs
e197    -0.82706709179591309    1.0   storageobs
e198    -0.62030031884693537    1.0   storageobs
e199    -0.41353354589795721    1.0   storageobs
e200    -0.20676677294897949    1.0   storageobs
e201    4.4408920985006262e-16    1.0   storageobs
e202    -2.631639762074445e-18    1.0   timeobs
e203    0.044620755882825686    1.0   timeobs
e204    0.093559787996059351    1.0   timeobs
e205    0.12487111311102564    1.0   timeobs
e206    0.16861540850144113    1.0   timeobs
e207    0.21015897852637    1.0   timeobs
e208    0.24189858727193436    1.0   timeobs
e209    0.3117376228895663    1.0   timeobs
e210    0.35313834130923144    1.0   timeobs
e211    0.4194492712091879    1.0   timeobs
e212    0.47271584577364312    1.0   timeobs
e213    0.5592144025864848    1.0   timeobs
e214    0.60592933280025785    1.0   timeobs
e215    0.65698235697021889    1.0   timeobs
e216    0.72811546477130429    1.0   timeobs
e217    0.79440162376485368    1.0   timeobs
e218    0.87150251091282149    1.0   timeobs
e219    0.95981325249147564    1.0   timeobs
e220    1.0441112794286951    1.0   timeobs
e221    1.1236924436494911    1.0   timeobs
e222    1.2214004002469472    1.0   timeobs
e223    1.2966442807351839    1.0   timeobs
e224    1.3954850875381588    1.0   timeobs
e225    1.4536953523943676    1.0   timeobs
e226    1.5058023483374778    1.0   timeobs
e227    1.6009875129477384    1.0   timeobs
e228    1.7157543318716584    1.0   timeobs
e229    1.8176343842976967    1.0   timeobs
e230    1.8892710285799148    1.0   timeobs
e231    1.9874418282782773    1.0   timeobs
e232    2.0724037664025894    1.0   timeobs
e233    2.1462712902272743    1.0   timeobs
e234    2.1910499464515971    1.0   timeobs
e235    2.2519447572924904    1.0   timeobs
e236    2.3362866077534212    1.0   timeobs
e237    2.3990581748411368    1.0   timeobs
e238    2.4823417497905873    1.0   timeobs
e239    2.5824028272282784    1.0   timeobs
e240    2.6943814123072194    1.0   timeobs
e241    2.7487976218622734    1.0   timeobs
e242    2.8675150277869861    1.0   timeobs
e243    2.9401565384142709    1.0   timeobs
e244    3.0349338519910507    1.0   timeobs
e245    3.1213935207944701    1.0   timeobs
e246    3.1397813279920612    1.0   timeobs
e247    3.2058640672147729    1.0   timeobs
e248    3.292227760302739    1.0   timeobs
e249    3.3590143365753526    1.0   timeobs
e250    3.503512669128372    1.0   timeobs
e251    3.5895256976610734    1.0   timeobs
e252    3.7146842990811315    1.0   timeobs
e253    3.8579551866948143    1.0   timeobs
e254    3.9424838114271075    1.0   timeobs
e255    4.0130573922893369    1.0   timeobs
e256    4.1198268896425514    1.0   timeobs
e257    4.2369751891763165    1.0   timeobs
e258    4.3577690687024742    1.0   timeobs
e259    4.4920435598782547    1.0   timeobs
e260    4.5757149938240467    1.0   timeobs
e261    4.7818641782203315    1.0   timeobs
e262    4.8040473819830529    1.0   timeobs
e263    4.8890271440067661    1.0   timeobs
e264    4.9350808816633309    1.0   timeobs
e265    5.0531375015357343    1.0   timeobs
e266    5.2035604134808269    1.0   timeobs
e267    5.375782841423371    1.0   timeobs
e268    5.340415584290235    1.0   timeobs
e269    5.3292612281441976    1.0   timeobs
e270    5.4321385422515762    1.0   timeobs
e271    5.6584857258295056    1.0   timeobs
e272    5.7308451792530226    1.0   timeobs
e273    5.8420280127809043    1.0   timeobs
e274    5.8930567880730704    1.0   timeobs
e275    6.077339382316957    1.0   timeobs
e276    6.1969254267271898    1.0   timeobs
e277    6.2816280357191632    1.0   timeobs
e278    6.4102068771303378    1.0   timeobs
e279    6.7624243260655268    1.0   timeobs
e280    6.924363752577487    1.0   timeobs
e281    7.077446971486415    1.0   timeobs
e282    7.1758718043640313    1.0   timeobs
e283    7.2397245702527648    1.0   timeobs
e284    7.4474091976547303    1.0   timeobs
e285    7.5537007639927083    1.0   timeobs
e286    7.5884228849009254    1.0   timeobs
e287    7.7284727899760526    1.0   timeobs
e288    7.7323822805431393    1.0   timeobs
e289    7.8876414132710195    1.0   timeobs
e290    8.0270221062390537    1.0   timeobs
e291    8.1703898961792198    1.0   timeobs
e292    8.3080177689305472    1.0   timeobs
e293    8.4265240310452079    1.0   timeobs
e294    8.5626180966636039    1.0   timeobs
e295    8.6654366384744232    1.0   timeobs
e296    8.8068905229587209    1.0   timeobs
e297    8.9765702914787369    1.0   timeobs
e298    9.0869837589075981    1.0   timeobs
e299    9.1468405089347815    1.0   timeobs
e300    9.2345422534431538    1.0   timeobs
e301    9.4471963084660828    1.0   timeobs
e302    9.7018037289631884    1.0   timeobs
e303    9.7745667389279447    1.0   timeobs
e304    9.9148635222889041    1.0   timeobs
e305    9.9539372849312091    1.0   timeobs
e306    10.059901341012889    1.0   timeobs
e307    10.205455009491358    1.0   timeobs
e308    10.398076646983265    1.0   timeobs
e309    10.512511692657256    1.0   timeobs
e310    10.715520984280159    1.0   timeobs
e311    10.83674672173837    1.0   timeobs
e312    11.062844528726986    1.0   timeobs
e313    11.163674356491699    1.0   timeobs
e314    11.311979338353003    1.0   timeobs
e315    11.410160134487223    1.0   timeobs
e316    11.652291593596795    1.0   timeobs
e317    11.882812057864864    1.0   timeobs
e318    11.97640677854994    1.0   timeobs
e319    12.0830405280545    1.0   timeobs
e320    12.145685884768612    1.0   timeobs
e321    12.363018055268075    1.0   timeobs
e322    12.580706671521888    1.0   timeobs
e323    12.684569309088936    1.0   timeobs
e324    12.840581776746262    1.0   timeobs
e325    12.914502400011266    1.0   timeobs
e326    13.131928108105042    1.0   timeobs
e327    13.201696348579977    1.0   timeobs
e328    13.51216414478087    1.0   timeobs
e329    13.691508793575032    1.0   timeobs
e330    13.808419460421391    1.0   timeobs
e331    13.951115579903508    1.0   timeobs
e332    14.100788200292644    1.0   timeobs
e333    14.317256515578691    1.0   timeobs
e334    14.470183559538068    1.0   timeobs
e335    14.571257531374229    1.0   timeobs
e336    14.693722049208271    1.0   timeobs
e337    14.832117697599598    1.0   timeobs
e338    14.970828719062352    1.0   timeobs
e339    15.087755251265559    1.0   timeobs
e340    15.384866581466827    1.0   timeobs
e341    15.619778525454102    1.0   timeobs
e342    15.761037121152462    1.0   timeobs
e343    15.889746508871063    1.0   timeobs
e344    15.992991941919643    1.0   timeobs
e345    16.176169263237192    1.0   timeobs
e346    16.393604299013543    1.0   timeobs
e347    16.610453074055119    1.0   timeobs
e348    16.657656916455519    1.0   timeobs
e349    16.815778729976255    1.0   timeobs
e350    16.985792346708564    1.0   timeobs
e351    17.12227177743496    1.0   timeobs
e352    17.179863682098254    1.0   timeobs
e353    17.4201984690316    1.0   timeobs
e354    17.596915409945122    1.0   timeobs
e355    17.728283687752405    1.0   timeobs
e356    17.780422735071575    1.0   timeobs
e357    17.791122987618817    1.0   timeobs
e358    17.916085070485064    1.0   timeobs
e359    17.960255095095221    1.0   timeobs
e360    18.043593219229358    1.0   timeobs
e361    18.267274667454227    1.0   timeobs
e362    18.392117034430431    1.0   timeobs
e363    18.545847482803726    1.0   timeobs
e364    18.649336337927163    1.0   timeobs
e365    18.894655433341047    1.0   timeobs
e366    19.007016606308785    1.0   timeobs
e367    19.06931212484287    1.0   timeobs
e368    19.304396538477928    1.0   timeobs
e369    19.932522720779158    1.0   timeobs
e370    20.104489849819473    1.0   timeobs
e371    20.269359780797927    1.0   timeobs
e372    20.304777368596792    1.0   timeobs
e373    20.384899426527053    1.0   timeobs
e374    20.465121050587694    1.0   timeobs
e375    20.608732105166606    1.0   timeobs
e376    21.081263956963284    1.0   timeobs
e377    21.123173281499607    1.0   timeobs
e378    21.274661939366698    1.0   timeobs
e379    21.395674521789118    1.0   timeobs
e380    21.494732601002369    1.0   timeobs
e381    21.635153072818483    1.0   timeobs
e382    21.724158095359549    1.0   timeobs
e383    21.796646531142091    1.0   timeobs
e384    21.83832057083702    1.0   timeobs
e385    21.877050552757044    1.0   timeobs
e386    21.995262918622458    1.0   timeobs
e387    22.206034310031093    1.0   timeobs
e388    22.387120656965575    1.0   timeobs
e389    22.621629178523779    1.0   timeobs
e390    22.698723701185443    1.0   timeobs
e391    22.826519999074936    1.0   timeobs
e392    22.914965803475258    1.0   timeobs
e393    22.9814081669183    1.0   timeobs
e394    23.045668767593419    1.0   timeobs
e395    23.117368159538923    1.0   timeobs
e396    23.229362132014579    1.0   timeobs
e397    23.342740248645626    1.0   timeobs
e398    23.406464167862072    1.0   timeobs
e399    23.48511844489682    1.0   timeobs
e400    23.566203981793262    1.0   timeobs
e401    23.664601904362719    1.0   timeobs
e402    23.77807511918509    1.0   timeobs
e403    23.906429332810319    1.0   timeobs
e404    24.027179447173882    1.0   timeobs
e405    24.148653179152792    1.0   timeobs
e406    24.230052868884606    1.0   timeobs
e407    24.319290174384196    1.0   timeobs
e408    24.360825452529749    1.0   timeobs
e409    24.433159667322347    1.0   timeobs
e410    24.492153686559838    1.0   timeobs
e411    24.580858452447099    1.0   timeobs
e412    24.660773649617546    1.0   timeobs
e413    24.752789687724995    1.0   timeobs
e414    24.829363385122146    1.0   timeobs
e415    24.906318684162436    1.0   timeobs
e416    25.023827448794709    1.0   timeobs
e417    25.031584243820269    1.0   timeobs
e418    25.066309692755748    1.0   timeobs
e419    25.131701504410675    1.0   timeobs
e420    25.163283475476153    1.0   timeobs
e421    25.189810975915062    1.0   timeobs
e422    25.264866724727213    1.0   timeobs
e423    25.317859609939802    1.0   timeobs
e424    25.396770882621936    1.0   timeobs
e425    25.517651563993546    1.0   timeobs
e426    25.635373261885984    1.0   timeobs
e427    25.732155789032586    1.0   timeobs
e428    25.852764436888581    1.0   timeobs
e429    25.932957275335216    1.0   timeobs
e430    26.005728772168013    1.0   timeobs
e431    26.040505469870247    1.0   timeobs
e432    26.08028336301286    1.0   timeobs
e433    26.11708222391044    1.0   timeobs
e434    26.179566598535903    1.0   timeobs
e435    26.243347714126291    1.0   timeobs
e436    26.343932143882665    1.0   timeobs
e437    26.416606844119318    1.0   timeobs
e438    26.513897287930828    1.0   timeobs
e439    26.60704669317899    1.0   timeobs
e440    26.702704865315543    1.0   timeobs
e441    26.768603185351157    1.0   timeobs
e442    26.841269824641081    1.0   timeobs
e443    26.907738634218479    1.0   timeobs
e444    26.937292212153945    1.0   timeobs
e445    27.017777424345859    1.0   timeobs
e446    27.0748116600274    1.0   timeobs
e447    27.148823804643417    1.0   timeobs
e448    27.226472487188445    1.0   timeobs
e449    27.27304795193341    1.0   timeobs
e450    27.369738380046819    1.0   timeobs
e451    27.449222170273679    1.0   timeobs
e452    27.518889561993852    1.0   timeobs
e453    27.588380288993164    1.0   timeobs
e454    27.67889257411775    1.0   timeobs
e455    27.760057068293051    1.0   timeobs
e456    27.818770975546066    1.0   timeobs
e457    27.89208262823291    1.0   timeobs
e458    27.97266662008742    1.0   timeobs
e459    28.044545027068256    1.0   timeobs
e460    28.104466682167917    1.0   timeobs
e461    28.17313916585649    1.0   timeobs
e462    28.241834686079475    1.0   timeobs
e463    28.310272713194863    1.0   timeobs
e464    28.402985437103091    1.0   timeobs
e465    28.485697716702383    1.0   timeobs
e466    28.553508865757408    1.0   timeobs
e467    28.63951309367242    1.0   timeobs
e468    28.665210593841927    1.0   timeobs
e469    28.748732713552048    1.0   timeobs
e470    28.764623083403837    1.0   timeobs
e471    28.82608791492952    1.0   timeobs
e472    28.86697391368973    1.0   timeobs
e473    28.940390980114699    1.0   timeobs
e474    29.028864108469978    1.0   timeobs
e475    29.086359855978991    1.0   timeobs
e476    29.216537223640454    1.0   timeobs
e477    29.311681053549453    1.0   timeobs
e478    29.407088568085001    1.0   timeobs
e479    29.487648982660101    1.0   timeobs
e480    29.638499739514501    1.0   timeobs
e481    29.708179966599531    1.0   timeobs
e482    29.808853063804673    1.0   timeobs
e483    29.886306209456411    1.0   timeobs
e484    29.863853756564676    1.0   timeobs
e485    29.915396360063607    1.0   timeobs
e486    29.973246036090639    1.0   timeobs
e487    30.013086147241616    1.0   timeobs
e488    30.088965710052864    1.0   timeobs
e489    30.278869776669794    1.0   timeobs
e490    30.408271496364723    1.0   timeobs
e491    30.441108238026661    1.0   timeobs
e492    30.46979617522658    1.0   timeobs
e493    30.594918196751596    1.0   timeobs
e494    30.666786879395865    1.0   timeobs
e495    30.749969671223511    1.0   timeobs
e496    30.845109628833637    1.0   timeobs
e497    31.003026532770054    1.0   timeobs
e498    31.060302104584142    1.0   timeobs
e499    31.180107031904434    1.0   timeobs
e500    31.248946598874308    1.0   timeobs
e501    31.371222920217082    1.0   timeobs
e502    31.395335686578949    1.0   timeobs
e503    31.42104129004758    1.0   timeobs
e504    31.446096708668861    1.0   timeobs
e505    31.482913052962481    1.0   timeobs
e506    31.549457351650528    1.0   timeobs
e507    31.702032652216904    1.0   timeobs
e508    31.946083911011833    1.0   timeobs
e509    32.0016268890991    1.0   timeobs
e510    32.073605712531595    1.0   timeobs
e511    32.197470339429458    1.0   timeobs
e512    32.329760741181026    1.0   timeobs
e513    32.446196920552111    1.0   timeobs
e514    32.517798998089113    1.0   timeobs
e515    32.55293402497977    1.0   timeobs
e516    32.640813617650636    1.0   timeobs
e517    32.664096595439389    1.0   timeobs
e518    32.767060814928314    1.0   timeobs
e519    32.895767832311662    1.0   timeobs
e520    32.963858735862885    1.0   timeobs
e521    33.004283054989166    1.0   timeobs
e522    32.992547434494824    1.0   timeobs
e523    33.035134050752887    1.0   timeobs
e524    33.118307629588926    1.0   timeobs
e525    33.201188129140299    1.0   timeobs
e526    33.282016227544567    1.0   timeobs
e527    33.31919208444225    1.0   timeobs
e528    33.349321758335293    1.0   timeobs
e529    33.456697029461942    1.0   timeobs
e530    33.51483721491465    1.0   timeobs
e531    33.613101282137912    1.0   timeobs
e532    33.737087781249244    1.0   timeobs
e533    33.803283895139771    1.0   timeobs
e534    33.821827955568409    1.0   timeobs
e535    33.893549033880483    1.0   timeobs
e536    33.983909413936537    1.0   timeobs
e537    34.011295650017196    1.0   timeobs
e538    34.039725967024772    1.0   timeobs
e539    34.069047311070847    1.0   timeobs
e540    34.134065221296837    1.0   timeobs
e541    34.14183270085033    1.0   timeobs
e542    34.213464676705406    1.0   timeobs
e543    34.238570847994545    1.0   timeobs
e544    34.314909270677717    1.0   timeobs
e545    34.376009786353478    1.0   timeobs
e546    34.416329046524659    1.0   timeobs
e547    34.486708732113591    1.0   timeobs
e548    34.533547284731917    1.0   timeobs
e549    34.624575173962114    1.0   timeobs
e550    34.749565775636249    1.0   timeobs
e551    34.787922580807333    1.0   timeobs
e552    34.831055715254699    1.0   timeobs
e553    34.908526956936953    1.0   timeobs
e554    34.958950237310297    1.0   timeobs
e555    35.036567504356313    1.0   timeobs
e556    35.091078630842347    1.0   timeobs
e557    35.136005279050103    1.0   timeobs
e558    35.19967083152725    1.0   timeobs
e559    35.254642428844157    1.0   timeobs
e560    35.320950158404578    1.0   timeobs
e561    35.370909502861437    1.0   timeobs
e562    35.439477513247475    1.0   timeobs
e563    35.518508865376489    1.0   timeobs
e564    35.605234043600085    1.0   timeobs
e565    35.670251627731467    1.0   timeobs
e566    35.693602113572787    1.0   timeobs
e567    35.738075795126534    1.0   timeobs
e568    35.713491063121303    1.0   timeobs
e569    35.787819330721497    1.0   timeobs
e570    35.85941228521709    1.0   timeobs
e571    35.866996744068622    1.0   timeobs
e572    35.902073222724113    1.0   timeobs
e573    35.92144525931878    1.0   timeobs
e574    35.908072476072327    1.0   timeobs
e575    35.92850798850953    1.0   timeobs
e576    35.969596454364591    1.0   timeobs
e577    36.033993267287421    1.0   timeobs
e578    36.082097066555171    1.0   timeobs
e579    36.161378108539765    1.0   timeobs
e580    36.223783298224518    1.0   timeobs
e581    36.265907385418444    1.0   timeobs
e582    36.398080629137027    1.0   timeobs
e583    36.438421489740008    1.0   timeobs
e584    36.531284937190591    1.0   timeobs
e585    36.546113476203914    1.0   timeobs
e586    36.564365287798111    1.0   timeobs
e587    36.594809813614397    1.0   timeobs
e588    36.646243205036662    1.0   timeobs
e589    36.861490243680144    1.0   timeobs
* model command line
bash simulate-curves.sh
* model input/output
curves_pars.yml.tpl  curves_pars.yml
curves_observations.ins  curves_observations.yml
* prior information