pcf
* control data
restart  estimation
    6   141     1     0     1
    1     1 double point   1   0   0
   5.0  2.0   0.3  0.03    10
  3.0   3.0 0.001  0
  0.1
   30  0.01     4     3  0.01     3
    1     1     1
* parameter groups
sy_knot      relative 0.01  0.0  switch  2.0 parabolic
* parameter data
sy_knot_1   none relative   NaN  0.01  1    sy_knot    1.0  0.0 1
sy_knot_2   none relative   NaN  0.01  1    sy_knot    1.0  0.0 1
sy_knot_3   none relative   NaN  0.01  1    sy_knot    1.0  0.0 1
sy_knot_4   none relative   NaN  0.01  1    sy_knot    1.0  0.0 1
sy_knot_5   none relative   NaN  0.01  1    sy_knot    1.0  0.0 1
sy_knot_6   none relative   NaN  0.01  1    sy_knot    1.0  0.0 1
* observation groups
storageobs
* observation data
e1    -98.631458750050527    1.0   storageobs
e2    -93.218678542710393    1.0   storageobs
e3    -89.013054694473084    1.0   storageobs
e4    -84.380673129733395    1.0   storageobs
e5    -80.028734665417289    1.0   storageobs
e6    -80.329619609323458    1.0   storageobs
e7    -77.582202452539292    1.0   storageobs
e8    -74.834785295755125    1.0   storageobs
e9    -72.087368138970973    1.0   storageobs
e10    -69.339950982186821    1.0   storageobs
e11    -66.592533825402654    1.0   storageobs
e12    -59.061421958448214    1.0   storageobs
e13    -57.297034196187042    1.0   storageobs
e14    -55.682026363938533    1.0   storageobs
e15    -54.154503308077381    1.0   storageobs
e16    -52.953499272486788    1.0   storageobs
e17    -51.752495236896188    1.0   storageobs
e18    -50.551491201305602    1.0   storageobs
e19    -49.350487165715016    1.0   storageobs
e20    -48.149483130124416    1.0   storageobs
e21    -46.94847909453383    1.0   storageobs
e22    -45.747475058943245    1.0   storageobs
e23    -44.546471023352645    1.0   storageobs
e24    -48.187785295698504    1.0   storageobs
e25    -47.705186787985667    1.0   storageobs
e26    -47.222588280272831    1.0   storageobs
e27    -46.739989772559987    1.0   storageobs
e28    -46.257391264847151    1.0   storageobs
e29    -45.332426647887274    1.0   storageobs
e30    -44.880229228169178    1.0   storageobs
e31    -44.428031808451074    1.0   storageobs
e32    -43.975834388732977    1.0   storageobs
e33    -43.523636969014881    1.0   storageobs
e34    -43.071439549296777    1.0   storageobs
e35    -42.61924212957868    1.0   storageobs
e36    -40.942461837326576    1.0   storageobs
e37    -40.552513396580146    1.0   storageobs
e38    -40.162564955833716    1.0   storageobs
e39    -39.772616515087286    1.0   storageobs
e40    -39.477736512529617    1.0   storageobs
e41    -39.009139030900215    1.0   storageobs
e42    -38.540541549270813    1.0   storageobs
e43    -38.071944067641411    1.0   storageobs
e44    -36.358753714468257    1.0   storageobs
e45    -40.033400465226379    1.0   storageobs
e46    -37.985698471726579    1.0   storageobs
e47    -35.937996478226772    1.0   storageobs
e48    -37.819218961906444    1.0   storageobs
e49    -39.775255275830602    1.0   storageobs
e50    -38.981965661449408    1.0   storageobs
e51    -38.188676047068206    1.0   storageobs
e52    -37.395386432687005    1.0   storageobs
e53    -36.602096818305803    1.0   storageobs
e54    -36.033093822409988    1.0   storageobs
e55    -35.256545193660166    1.0   storageobs
e56    -34.479996564910358    1.0   storageobs
e57    -33.703447936160543    1.0   storageobs
e58    -34.285537711595424    1.0   storageobs
e59    -33.592134441936516    1.0   storageobs
e60    -32.898731172277614    1.0   storageobs
e61    -32.205327902618706    1.0   storageobs
e62    -31.511924632959801    1.0   storageobs
e63    -30.818521363300892    1.0   storageobs
e64    -30.125118093641987    1.0   storageobs
e65    -29.431714823983086    1.0   storageobs
e66    -28.738311554324174    1.0   storageobs
e67    -30.082539439388    1.0   storageobs
e68    -29.416927117488381    1.0   storageobs
e69    -28.751314795588744    1.0   storageobs
e70    -28.489037427356799    1.0   storageobs
e71    -27.828871381195825    1.0   storageobs
e72    -27.168705335034851    1.0   storageobs
e73    -27.274834163165583    1.0   storageobs
e74    -26.63231614786006    1.0   storageobs
e75    -25.98979813255454    1.0   storageobs
e76    -27.846738811819609    1.0   storageobs
e77    -27.301955664212098    1.0   storageobs
e78    -26.757172516604594    1.0   storageobs
e79    -26.212389368997083    1.0   storageobs
e80    -25.667606221389576    1.0   storageobs
e81    -25.122823073782069    1.0   storageobs
e82    -24.578039926174558    1.0   storageobs
e83    -24.033256778567051    1.0   storageobs
e84    -23.488473630959543    1.0   storageobs
e85    -22.943690483352032    1.0   storageobs
e86    -22.398907335744529    1.0   storageobs
e87    -21.854124188137021    1.0   storageobs
e88    -18.612894050548846    1.0   storageobs
e89    -20.155768016639314    1.0   storageobs
e90    -19.045867506731085    1.0   storageobs
e91    -17.935966996822852    1.0   storageobs
e92    -16.826066486914623    1.0   storageobs
e93    -18.238424177819248    1.0   storageobs
e94    -17.093449760588143    1.0   storageobs
e95    -15.948475343357039    1.0   storageobs
e96    -14.803500926125938    1.0   storageobs
e97    -13.658526508894832    1.0   storageobs
e98    -18.45589167364432    1.0   storageobs
e99    -18.004072906404947    1.0   storageobs
e100    -17.611127503819674    1.0   storageobs
e101    -17.037394726866335    1.0   storageobs
e102    -16.601675388086015    1.0   storageobs
e103    -16.165956049305699    1.0   storageobs
e104    -15.730236710525384    1.0   storageobs
e105    -15.294517371745062    1.0   storageobs
e106    -14.858798032964746    1.0   storageobs
e107    -14.423078694184426    1.0   storageobs
e108    -13.987359355404106    1.0   storageobs
e109    -13.551640016623788    1.0   storageobs
e110    -13.115920677843468    1.0   storageobs
e111    -12.680201339063149    1.0   storageobs
e112    -12.244482000282831    1.0   storageobs
e113    -11.808762661502513    1.0   storageobs
e114    -11.373043322722195    1.0   storageobs
e115    -10.937323983941875    1.0   storageobs
e116    -10.501604645161555    1.0   storageobs
e117    -10.065885306381238    1.0   storageobs
e118    -9.4921525294280684    1.0   storageobs
e119    -9.041098364184089    1.0   storageobs
e120    -8.5900441989401131    1.0   storageobs
e121    -8.1389900336961354    1.0   storageobs
e122    -7.464152809932628    1.0   storageobs
e123    -6.995067718981173    1.0   storageobs
e124    -6.5259826280297188    1.0   storageobs
e125    -6.0568975370782638    1.0   storageobs
e126    -6.3011670223981291    1.0   storageobs
e127    -5.881089220904923    1.0   storageobs
e128    -5.4610114194117125    1.0   storageobs
e129    -5.0409336179185056    1.0   storageobs
e130    -4.6208558164252951    1.0   storageobs
e131    -4.2007780149320881    1.0   storageobs
e132    -3.7807002134388776    1.0   storageobs
e133    -3.3606224119456707    1.0   storageobs
e134    -2.9405446104524602    1.0   storageobs
e135    -2.5204668089592541    1.0   storageobs
e136    -2.1003890074660436    1.0   storageobs
e137    -1.6803112059728367    1.0   storageobs
e138    -1.2602334044796262    1.0   storageobs
e139    -0.84015560298641923    1.0   storageobs
e140    -0.42007780149320872    1.0   storageobs
e141    -1.7763568394002505e-15    1.0   storageobs
* model command line
bash simulate-rise.sh
* model input/output
rise_pars.yml.tpl  rise_pars.yml
rise_observations.ins  rise_observations.yml
* prior information