pcf
* control data
restart  estimation
    6   204     1     0     1
    1     1 double point   1   0   0
   5.0  2.0   0.3  0.03    10
  3.0   3.0 0.001  0
  0.1
   30  0.01     4     3  0.01     3
    1     1     1
* parameter groups
sy_knot      relative 0.01  0.0  switch  2.0 parabolic
* parameter data
sy_knot_1   none relative   NaN  0.01  1    sy_knot    1.0  0.0 1
sy_knot_2   none relative   NaN  0.01  1    sy_knot    1.0  0.0 1
sy_knot_3   none relative   NaN  0.01  1    sy_knot    1.0  0.0 1
sy_knot_4   none relative   NaN  0.01  1    sy_knot    1.0  0.0 1
sy_knot_5   none relative   NaN  0.01  1    sy_knot    1.0  0.0 1
sy_knot_6   none relative   NaN  0.01  1    sy_knot    1.0  0.0 1
* observation groups
storageobs
* observation data
e1    -55.199095949    1.0   storageobs
e2    -55.0898478824    1.0   storageobs
e3    -54.6212680583    1.0   storageobs
e4    -54.1526882343    1.0   storageobs
e5    -53.6841084102    1.0   storageobs
e6    -53.2155285861    1.0   storageobs
e7    -52.746948762    1.0   storageobs
e8    -52.2783689379    1.0   storageobs
e9    -51.8097891138    1.0   storageobs
e10    -51.3412092897    1.0   storageobs
e11    -50.8726294656    1.0   storageobs
e12    -47.9909898745    1.0   storageobs
e13    -47.6211906491    1.0   storageobs
e14    -47.2513914237    1.0   storageobs
e15    -46.8815921983    1.0   storageobs
e16    -46.5117929729    1.0   storageobs
e17    -46.1419937475    1.0   storageobs
e18    -45.5529587785    1.0   storageobs
e19    -45.1947582925    1.0   storageobs
e20    -44.8365578066    1.0   storageobs
e21    -44.4783573206    1.0   storageobs
e22    -44.1201568346    1.0   storageobs
e23    -43.7619563487    1.0   storageobs
e24    -43.4037558627    1.0   storageobs
e25    -42.2469100851    1.0   storageobs
e26    -41.9393504341    1.0   storageobs
e27    -41.6317907831    1.0   storageobs
e28    -41.3242311321    1.0   storageobs
e29    -41.0166714811    1.0   storageobs
e30    -40.70911183    1.0   storageobs
e31    -40.401552179    1.0   storageobs
e32    -40.093992528    1.0   storageobs
e33    -39.786432877    1.0   storageobs
e34    -39.478873226    1.0   storageobs
e35    -39.1713135749    1.0   storageobs
e36    -38.8637539239    1.0   storageobs
e37    -38.5561942729    1.0   storageobs
e38    -38.2486346219    1.0   storageobs
e39    -37.9410749708    1.0   storageobs
e40    -37.6335153198    1.0   storageobs
e41    -37.3259556688    1.0   storageobs
e42    -37.0183960178    1.0   storageobs
e43    -36.7108363668    1.0   storageobs
e44    -36.4032767157    1.0   storageobs
e45    -36.0957170647    1.0   storageobs
e46    -35.7881574137    1.0   storageobs
e47    -35.4805977627    1.0   storageobs
e48    -35.1730381117    1.0   storageobs
e49    -34.8654784606    1.0   storageobs
e50    -34.5579188096    1.0   storageobs
e51    -34.2503591586    1.0   storageobs
e52    -33.9164338398    1.0   storageobs
e53    -33.6097233642    1.0   storageobs
e54    -33.3030128886    1.0   storageobs
e55    -32.996302413    1.0   storageobs
e56    -32.6895919375    1.0   storageobs
e57    -32.3828814619    1.0   storageobs
e58    -32.0761709863    1.0   storageobs
e59    -31.7694605107    1.0   storageobs
e60    -31.4627500351    1.0   storageobs
e61    -31.1560395595    1.0   storageobs
e62    -30.8493290839    1.0   storageobs
e63    -34.9384918352    1.0   storageobs
e64    -34.7809380945    1.0   storageobs
e65    -34.6233843539    1.0   storageobs
e66    -34.4658306132    1.0   storageobs
e67    -34.3082768726    1.0   storageobs
e68    -37.1660391135    1.0   storageobs
e69    -37.1110536087    1.0   storageobs
e70    -37.056068104    1.0   storageobs
e71    -37.0010825992    1.0   storageobs
e72    -36.9460970944    1.0   storageobs
e73    -36.8911115896    1.0   storageobs
e74    -36.8361260849    1.0   storageobs
e75    -36.7811405801    1.0   storageobs
e76    -36.7261550753    1.0   storageobs
e77    -36.6711695706    1.0   storageobs
e78    -36.6161840658    1.0   storageobs
e79    -36.561198561    1.0   storageobs
e80    -36.5062130562    1.0   storageobs
e81    -36.4512275515    1.0   storageobs
e82    -36.3962420467    1.0   storageobs
e83    -36.3412565419    1.0   storageobs
e84    -36.2862710371    1.0   storageobs
e85    -36.2312855324    1.0   storageobs
e86    -36.1763000276    1.0   storageobs
e87    -36.5607200978    1.0   storageobs
e88    -36.5149705553    1.0   storageobs
e89    -36.4692210128    1.0   storageobs
e90    -36.4234714703    1.0   storageobs
e91    -36.3777219278    1.0   storageobs
e92    -36.3319723853    1.0   storageobs
e93    -36.2862228428    1.0   storageobs
e94    -36.2404733004    1.0   storageobs
e95    -36.1947237579    1.0   storageobs
e96    -36.1489742154    1.0   storageobs
e97    -36.1032246729    1.0   storageobs
e98    -36.0574751304    1.0   storageobs
e99    -36.0117255879    1.0   storageobs
e100    -38.7818770627    1.0   storageobs
e101    -38.4722509002    1.0   storageobs
e102    -37.5542849013    1.0   storageobs
e103    -37.3056797631    1.0   storageobs
e104    -37.0570746248    1.0   storageobs
e105    -36.8084694866    1.0   storageobs
e106    -36.5598643483    1.0   storageobs
e107    -40.9515586472    1.0   storageobs
e108    -40.5695596884    1.0   storageobs
e109    -40.1875607296    1.0   storageobs
e110    -39.8055617708    1.0   storageobs
e111    -39.423562812    1.0   storageobs
e112    -39.0415638532    1.0   storageobs
e113    -38.6595648944    1.0   storageobs
e114    -37.1019157136    1.0   storageobs
e115    -37.5825637358    1.0   storageobs
e116    -37.327953716    1.0   storageobs
e117    -37.0733436963    1.0   storageobs
e118    -37.148251077    1.0   storageobs
e119    -36.8863529654    1.0   storageobs
e120    -36.9967469891    1.0   storageobs
e121    -36.7250251693    1.0   storageobs
e122    -36.4533033494    1.0   storageobs
e123    -36.634822584    1.0   storageobs
e124    -36.4123002546    1.0   storageobs
e125    -36.1897779252    1.0   storageobs
e126    -35.9672555959    1.0   storageobs
e127    -35.7447332665    1.0   storageobs
e128    -35.3234280686    1.0   storageobs
e129    -34.7669601132    1.0   storageobs
e130    -34.5288176823    1.0   storageobs
e131    -34.2906752514    1.0   storageobs
e132    -34.0525328205    1.0   storageobs
e133    -33.8143903896    1.0   storageobs
e134    -33.5762479586    1.0   storageobs
e135    -33.3381055277    1.0   storageobs
e136    -33.0999630968    1.0   storageobs
e137    -32.8618206659    1.0   storageobs
e138    -32.623678235    1.0   storageobs
e139    -32.3855358041    1.0   storageobs
e140    -32.1473933731    1.0   storageobs
e141    -31.9092509422    1.0   storageobs
e142    -31.6711085113    1.0   storageobs
e143    -31.4329660804    1.0   storageobs
e144    -31.1948236495    1.0   storageobs
e145    -30.9566812185    1.0   storageobs
e146    -30.7185387876    1.0   storageobs
e147    -30.4803963567    1.0   storageobs
e148    -30.2422539258    1.0   storageobs
e149    -30.0041114949    1.0   storageobs
e150    -29.765969064    1.0   storageobs
e151    -29.527826633    1.0   storageobs
e152    -30.0232204725    1.0   storageobs
e153    -29.7286946842    1.0   storageobs
e154    -29.434168896    1.0   storageobs
e155    -29.1396431077    1.0   storageobs
e156    -28.8451173195    1.0   storageobs
e157    -29.0616898917    1.0   storageobs
e158    -28.718603281    1.0   storageobs
e159    -28.3755166702    1.0   storageobs
e160    -28.0324300595    1.0   storageobs
e161    -27.6893434488    1.0   storageobs
e162    -27.346256838    1.0   storageobs
e163    -27.0031702273    1.0   storageobs
e164    -26.6600836166    1.0   storageobs
e165    -25.6566072236    1.0   storageobs
e166    -25.2788275447    1.0   storageobs
e167    -24.9010478659    1.0   storageobs
e168    -24.523268187    1.0   storageobs
e169    -24.1454885081    1.0   storageobs
e170    -23.7677088292    1.0   storageobs
e171    -22.9033013629    1.0   storageobs
e172    -22.4924794898    1.0   storageobs
e173    -22.0816576167    1.0   storageobs
e174    -21.6708357436    1.0   storageobs
e175    -21.2600138705    1.0   storageobs
e176    -20.8491919975    1.0   storageobs
e177    -20.4383701244    1.0   storageobs
e178    -20.0275482513    1.0   storageobs
e179    -17.9056907296    1.0   storageobs
e180    -16.8872488692    1.0   storageobs
e181    -16.3840946747    1.0   storageobs
e182    -15.8809404802    1.0   storageobs
e183    -15.3777862856    1.0   storageobs
e184    -14.8746320911    1.0   storageobs
e185    -14.3714778966    1.0   storageobs
e186    -13.8683237021    1.0   storageobs
e187    -13.3651695075    1.0   storageobs
e188    -12.862015313    1.0   storageobs
e189    -13.0342687349    1.0   storageobs
e190    -13.7673172574    1.0   storageobs
e191    -13.4023210933    1.0   storageobs
e192    -13.0373249291    1.0   storageobs
e193    -19.5122914289    1.0   storageobs
e194    -19.305524656    1.0   storageobs
e195    -26.4642977733    1.0   storageobs
e196    -24.3932237704    1.0   storageobs
e197    -22.3221497675    1.0   storageobs
e198    -20.2510757646    1.0   storageobs
e199    -18.1800017617    1.0   storageobs
e200    -16.1089277588    1.0   storageobs
e201    -14.0378537559    1.0   storageobs
e202    -6.14017624049    1.0   storageobs
e203    -3.07008812024    1.0   storageobs
e204    0    1.0   storageobs
* model command line
bash simulate-rise.sh
* model input/output
rise_pars.yml.tpl  rise_pars.yml
rise_observations.ins  rise_observations.yml
* prior information
