pcf
* control data
restart  estimation
   11   428     3     0     2
    1     1 double point   1   0   0
   5.0  2.0   0.3  0.03    10
  3.0   3.0 0.001  0
  0.1
   30  0.01     4     3  0.01     3
    1     1     1
* parameter groups
sy_knot      relative 0.01  0.0  switch  2.0 parabolic
k_knot       relative 0.01  0.0  switch  2.0 parabolic
T_min        relative 0.01  0.0  switch  2.0 parabolic
* parameter data
sy_knot_1  none relative  NaN  0.01     1       sy_knot  1.0  0.0  1
sy_knot_2  none relative  NaN  0.01     1       sy_knot  1.0  0.0  1
sy_knot_3  none relative  NaN  0.01     1       sy_knot  1.0  0.0  1
sy_knot_4  none relative  NaN  0.01     1       sy_knot  1.0  0.0  1
sy_knot_5  none relative  NaN  0.01     1       sy_knot  1.0  0.0  1
sy_knot_6  none relative  NaN  0.01     1       sy_knot  1.0  0.0  1
k_knot_1   log  factor    NaN  1.0e-04  1.0e+5  k_knot   1.0  0.0  1
k_knot_2   log  factor    NaN  1.0e-04  1.0e+5  k_knot   1.0  0.0  1
k_knot_3   log  factor    NaN  1.0e-04  1.0e+5  k_knot   1.0  0.0  1
k_knot_4   log  factor    NaN  1.0e-04  1.0e+5  k_knot   1.0  0.0  1
T_min      log  factor    NaN  1.0e-04  1.0e+5  T_min    1.0  0.0  1
* observation groups
storageobs
timeobs
* observation data
e1    -98.631    1.0   storageobs
e2    -93.219    1.0   storageobs
e3    -89.013    1.0   storageobs
e4    -84.381    1.0   storageobs
e5    -80.029    1.0   storageobs
e6    -80.33    1.0   storageobs
e7    -77.582    1.0   storageobs
e8    -74.835    1.0   storageobs
e9    -72.087    1.0   storageobs
e10    -69.34    1.0   storageobs
e11    -66.593    1.0   storageobs
e12    -59.061    1.0   storageobs
e13    -57.297    1.0   storageobs
e14    -55.682    1.0   storageobs
e15    -54.155    1.0   storageobs
e16    -52.953    1.0   storageobs
e17    -51.752    1.0   storageobs
e18    -50.551    1.0   storageobs
e19    -49.35    1.0   storageobs
e20    -48.149    1.0   storageobs
e21    -46.948    1.0   storageobs
e22    -45.747    1.0   storageobs
e23    -44.546    1.0   storageobs
e24    -48.188    1.0   storageobs
e25    -47.705    1.0   storageobs
e26    -47.223    1.0   storageobs
e27    -46.74    1.0   storageobs
e28    -46.257    1.0   storageobs
e29    -45.332    1.0   storageobs
e30    -44.88    1.0   storageobs
e31    -44.428    1.0   storageobs
e32    -43.976    1.0   storageobs
e33    -43.524    1.0   storageobs
e34    -43.071    1.0   storageobs
e35    -42.619    1.0   storageobs
e36    -40.942    1.0   storageobs
e37    -40.553    1.0   storageobs
e38    -40.163    1.0   storageobs
e39    -39.773    1.0   storageobs
e40    -39.478    1.0   storageobs
e41    -39.009    1.0   storageobs
e42    -38.541    1.0   storageobs
e43    -38.072    1.0   storageobs
e44    -36.359    1.0   storageobs
e45    -40.033    1.0   storageobs
e46    -37.986    1.0   storageobs
e47    -35.938    1.0   storageobs
e48    -37.819    1.0   storageobs
e49    -39.775    1.0   storageobs
e50    -38.982    1.0   storageobs
e51    -38.189    1.0   storageobs
e52    -37.395    1.0   storageobs
e53    -36.602    1.0   storageobs
e54    -36.033    1.0   storageobs
e55    -35.257    1.0   storageobs
e56    -34.48    1.0   storageobs
e57    -33.703    1.0   storageobs
e58    -34.286    1.0   storageobs
e59    -33.592    1.0   storageobs
e60    -32.899    1.0   storageobs
e61    -32.205    1.0   storageobs
e62    -31.512    1.0   storageobs
e63    -30.819    1.0   storageobs
e64    -30.125    1.0   storageobs
e65    -29.432    1.0   storageobs
e66    -28.738    1.0   storageobs
e67    -30.083    1.0   storageobs
e68    -29.417    1.0   storageobs
e69    -28.751    1.0   storageobs
e70    -28.489    1.0   storageobs
e71    -27.829    1.0   storageobs
e72    -27.169    1.0   storageobs
e73    -27.275    1.0   storageobs
e74    -26.632    1.0   storageobs
e75    -25.99    1.0   storageobs
e76    -27.847    1.0   storageobs
e77    -29.634    1.0   storageobs
e78    -27.923    1.0   storageobs
e79    -26.212    1.0   storageobs
e80    -24.502    1.0   storageobs
e81    -22.791    1.0   storageobs
e82    -24.578    1.0   storageobs
e83    -24.033    1.0   storageobs
e84    -23.488    1.0   storageobs
e85    -22.944    1.0   storageobs
e86    -22.399    1.0   storageobs
e87    -21.854    1.0   storageobs
e88    -18.613    1.0   storageobs
e89    -20.156    1.0   storageobs
e90    -19.046    1.0   storageobs
e91    -17.936    1.0   storageobs
e92    -16.826    1.0   storageobs
e93    -18.238    1.0   storageobs
e94    -17.093    1.0   storageobs
e95    -15.948    1.0   storageobs
e96    -14.804    1.0   storageobs
e97    -13.659    1.0   storageobs
e98    -18.456    1.0   storageobs
e99    -18.004    1.0   storageobs
e100    -17.611    1.0   storageobs
e101    -17.037    1.0   storageobs
e102    -16.602    1.0   storageobs
e103    -16.166    1.0   storageobs
e104    -15.73    1.0   storageobs
e105    -15.295    1.0   storageobs
e106    -14.859    1.0   storageobs
e107    -14.423    1.0   storageobs
e108    -13.987    1.0   storageobs
e109    -13.552    1.0   storageobs
e110    -13.116    1.0   storageobs
e111    -12.68    1.0   storageobs
e112    -12.244    1.0   storageobs
e113    -11.809    1.0   storageobs
e114    -11.373    1.0   storageobs
e115    -10.937    1.0   storageobs
e116    -10.502    1.0   storageobs
e117    -10.066    1.0   storageobs
e118    -9.4922    1.0   storageobs
e119    -9.0411    1.0   storageobs
e120    -8.59    1.0   storageobs
e121    -8.139    1.0   storageobs
e122    -7.4642    1.0   storageobs
e123    -6.9951    1.0   storageobs
e124    -6.526    1.0   storageobs
e125    -6.0569    1.0   storageobs
e126    -6.3012    1.0   storageobs
e127    -5.8811    1.0   storageobs
e128    -5.461    1.0   storageobs
e129    -5.0409    1.0   storageobs
e130    -4.6209    1.0   storageobs
e131    -4.2008    1.0   storageobs
e132    -3.7807    1.0   storageobs
e133    -3.3606    1.0   storageobs
e134    -2.9405    1.0   storageobs
e135    -2.5205    1.0   storageobs
e136    -2.1004    1.0   storageobs
e137    -1.6803    1.0   storageobs
e138    -1.2602    1.0   storageobs
e139    -0.84016    1.0   storageobs
e140    -0.42008    1.0   storageobs
e141    1.7764e-15    1.0   storageobs
e142    -7.8949e-18    1.0   timeobs
e143    0.031729    1.0   timeobs
e144    0.063266    1.0   timeobs
e145    0.11511    1.0   timeobs
e146    0.17413    1.0   timeobs
e147    0.27817    1.0   timeobs
e148    0.29468    1.0   timeobs
e149    0.32259    1.0   timeobs
e150    0.23009    1.0   timeobs
e151    0.23025    1.0   timeobs
e152    0.32151    1.0   timeobs
e153    0.37721    1.0   timeobs
e154    0.57992    1.0   timeobs
e155    0.67087    1.0   timeobs
e156    0.83003    1.0   timeobs
e157    0.84665    1.0   timeobs
e158    0.87501    1.0   timeobs
e159    0.98909    1.0   timeobs
e160    1.0684    1.0   timeobs
e161    1.1665    1.0   timeobs
e162    1.2578    1.0   timeobs
e163    1.1179    1.0   timeobs
e164    1.2228    1.0   timeobs
e165    1.3418    1.0   timeobs
e166    1.3982    1.0   timeobs
e167    1.4418    1.0   timeobs
e168    1.462    1.0   timeobs
e169    1.5549    1.0   timeobs
e170    1.6545    1.0   timeobs
e171    1.7733    1.0   timeobs
e172    1.892    1.0   timeobs
e173    1.9622    1.0   timeobs
e174    2.0964    1.0   timeobs
e175    2.2369    1.0   timeobs
e176    2.2572    1.0   timeobs
e177    2.3919    1.0   timeobs
e178    2.5118    1.0   timeobs
e179    2.5888    1.0   timeobs
e180    2.6825    1.0   timeobs
e181    2.8786    1.0   timeobs
e182    2.9207    1.0   timeobs
e183    2.9896    1.0   timeobs
e184    3.1616    1.0   timeobs
e185    3.2633    1.0   timeobs
e186    3.4214    1.0   timeobs
e187    3.5701    1.0   timeobs
e188    3.621    1.0   timeobs
e189    3.6407    1.0   timeobs
e190    3.7059    1.0   timeobs
e191    3.7243    1.0   timeobs
e192    3.8293    1.0   timeobs
e193    3.9808    1.0   timeobs
e194    4.1057    1.0   timeobs
e195    4.2081    1.0   timeobs
e196    4.4069    1.0   timeobs
e197    4.6173    1.0   timeobs
e198    4.7065    1.0   timeobs
e199    4.7994    1.0   timeobs
e200    4.9508    1.0   timeobs
e201    5.1153    1.0   timeobs
e202    5.2085    1.0   timeobs
e203    5.3199    1.0   timeobs
e204    5.3929    1.0   timeobs
e205    5.4525    1.0   timeobs
e206    5.5328    1.0   timeobs
e207    5.5975    1.0   timeobs
e208    5.7142    1.0   timeobs
e209    5.8555    1.0   timeobs
e210    5.9599    1.0   timeobs
e211    6.0365    1.0   timeobs
e212    6.1985    1.0   timeobs
e213    6.3503    1.0   timeobs
e214    6.4655    1.0   timeobs
e215    6.6073    1.0   timeobs
e216    6.7672    1.0   timeobs
e217    6.8564    1.0   timeobs
e218    7.0028    1.0   timeobs
e219    7.1268    1.0   timeobs
e220    7.3427    1.0   timeobs
e221    7.4661    1.0   timeobs
e222    7.5886    1.0   timeobs
e223    7.7395    1.0   timeobs
e224    7.8831    1.0   timeobs
e225    7.9606    1.0   timeobs
e226    8.0518    1.0   timeobs
e227    8.1114    1.0   timeobs
e228    8.1978    1.0   timeobs
e229    8.3131    1.0   timeobs
e230    8.5027    1.0   timeobs
e231    8.6497    1.0   timeobs
e232    8.8243    1.0   timeobs
e233    8.9803    1.0   timeobs
e234    9.1133    1.0   timeobs
e235    9.3005    1.0   timeobs
e236    9.4541    1.0   timeobs
e237    9.6689    1.0   timeobs
e238    9.7955    1.0   timeobs
e239    9.8723    1.0   timeobs
e240    10.077    1.0   timeobs
e241    10.23    1.0   timeobs
e242    10.404    1.0   timeobs
e243    10.616    1.0   timeobs
e244    10.768    1.0   timeobs
e245    10.959    1.0   timeobs
e246    10.991    1.0   timeobs
e247    11.046    1.0   timeobs
e248    11.335    1.0   timeobs
e249    11.474    1.0   timeobs
e250    11.649    1.0   timeobs
e251    11.863    1.0   timeobs
e252    11.958    1.0   timeobs
e253    12.04    1.0   timeobs
e254    12.159    1.0   timeobs
e255    12.322    1.0   timeobs
e256    12.498    1.0   timeobs
e257    12.734    1.0   timeobs
e258    12.875    1.0   timeobs
e259    12.94    1.0   timeobs
e260    13.029    1.0   timeobs
e261    13.22    1.0   timeobs
e262    13.301    1.0   timeobs
e263    13.435    1.0   timeobs
e264    13.511    1.0   timeobs
e265    13.68    1.0   timeobs
e266    13.809    1.0   timeobs
e267    13.995    1.0   timeobs
e268    14.118    1.0   timeobs
e269    14.178    1.0   timeobs
e270    14.265    1.0   timeobs
e271    14.404    1.0   timeobs
e272    14.484    1.0   timeobs
e273    14.579    1.0   timeobs
e274    14.733    1.0   timeobs
e275    14.851    1.0   timeobs
e276    14.923    1.0   timeobs
e277    15.022    1.0   timeobs
e278    15.166    1.0   timeobs
e279    15.311    1.0   timeobs
e280    15.384    1.0   timeobs
e281    15.431    1.0   timeobs
e282    15.57    1.0   timeobs
e283    15.707    1.0   timeobs
e284    15.879    1.0   timeobs
e285    16.072    1.0   timeobs
e286    16.165    1.0   timeobs
e287    16.289    1.0   timeobs
e288    16.418    1.0   timeobs
e289    16.623    1.0   timeobs
e290    16.729    1.0   timeobs
e291    16.839    1.0   timeobs
e292    17.119    1.0   timeobs
e293    17.258    1.0   timeobs
e294    17.365    1.0   timeobs
e295    17.441    1.0   timeobs
e296    17.573    1.0   timeobs
e297    17.732    1.0   timeobs
e298    18.008    1.0   timeobs
e299    18.319    1.0   timeobs
e300    18.407    1.0   timeobs
e301    18.485    1.0   timeobs
e302    18.675    1.0   timeobs
e303    18.929    1.0   timeobs
e304    19.116    1.0   timeobs
e305    19.285    1.0   timeobs
e306    19.525    1.0   timeobs
e307    19.616    1.0   timeobs
e308    19.744    1.0   timeobs
e309    19.833    1.0   timeobs
e310    20.079    1.0   timeobs
e311    20.339    1.0   timeobs
e312    20.484    1.0   timeobs
e313    20.618    1.0   timeobs
e314    20.676    1.0   timeobs
e315    20.825    1.0   timeobs
e316    21.001    1.0   timeobs
e317    21.225    1.0   timeobs
e318    21.33    1.0   timeobs
e319    21.576    1.0   timeobs
e320    21.721    1.0   timeobs
e321    22.106    1.0   timeobs
e322    22.354    1.0   timeobs
e323    22.558    1.0   timeobs
e324    22.697    1.0   timeobs
e325    22.852    1.0   timeobs
e326    22.968    1.0   timeobs
e327    23.052    1.0   timeobs
e328    23.213    1.0   timeobs
e329    23.432    1.0   timeobs
e330    23.546    1.0   timeobs
e331    23.673    1.0   timeobs
e332    23.836    1.0   timeobs
e333    23.95    1.0   timeobs
e334    24.068    1.0   timeobs
e335    24.11    1.0   timeobs
e336    24.213    1.0   timeobs
e337    24.412    1.0   timeobs
e338    24.543    1.0   timeobs
e339    24.782    1.0   timeobs
e340    24.891    1.0   timeobs
e341    25.105    1.0   timeobs
e342    25.155    1.0   timeobs
e343    25.24    1.0   timeobs
e344    25.193    1.0   timeobs
e345    25.298    1.0   timeobs
e346    25.396    1.0   timeobs
e347    25.496    1.0   timeobs
e348    25.57    1.0   timeobs
e349    25.689    1.0   timeobs
e350    25.828    1.0   timeobs
e351    25.975    1.0   timeobs
e352    26.109    1.0   timeobs
e353    26.158    1.0   timeobs
e354    26.278    1.0   timeobs
e355    26.374    1.0   timeobs
e356    26.452    1.0   timeobs
e357    26.516    1.0   timeobs
e358    26.573    1.0   timeobs
e359    26.898    1.0   timeobs
e360    27    1.0   timeobs
e361    27.118    1.0   timeobs
e362    27.318    1.0   timeobs
e363    27.476    1.0   timeobs
e364    27.617    1.0   timeobs
e365    27.724    1.0   timeobs
e366    27.84    1.0   timeobs
e367    27.876    1.0   timeobs
e368    27.998    1.0   timeobs
e369    28.071    1.0   timeobs
e370    28.282    1.0   timeobs
e371    28.448    1.0   timeobs
e372    28.709    1.0   timeobs
e373    29.202    1.0   timeobs
e374    29.299    1.0   timeobs
e375    29.393    1.0   timeobs
e376    29.475    1.0   timeobs
e377    29.679    1.0   timeobs
e378    29.691    1.0   timeobs
e379    29.778    1.0   timeobs
e380    29.899    1.0   timeobs
e381    29.997    1.0   timeobs
e382    30.048    1.0   timeobs
e383    30.087    1.0   timeobs
e384    30.16    1.0   timeobs
e385    30.246    1.0   timeobs
e386    30.363    1.0   timeobs
e387    30.369    1.0   timeobs
e388    30.43    1.0   timeobs
e389    30.532    1.0   timeobs
e390    30.635    1.0   timeobs
e391    30.755    1.0   timeobs
e392    30.946    1.0   timeobs
e393    31.025    1.0   timeobs
e394    31.059    1.0   timeobs
e395    31.093    1.0   timeobs
e396    31.153    1.0   timeobs
e397    31.198    1.0   timeobs
e398    31.266    1.0   timeobs
e399    31.356    1.0   timeobs
e400    31.399    1.0   timeobs
e401    31.508    1.0   timeobs
e402    31.588    1.0   timeobs
e403    31.536    1.0   timeobs
e404    31.513    1.0   timeobs
e405    31.547    1.0   timeobs
e406    31.638    1.0   timeobs
e407    31.648    1.0   timeobs
e408    31.635    1.0   timeobs
e409    31.792    1.0   timeobs
e410    31.832    1.0   timeobs
e411    31.904    1.0   timeobs
e412    32.033    1.0   timeobs
e413    32.059    1.0   timeobs
e414    32.162    1.0   timeobs
e415    32.66    1.0   timeobs
e416    32.829    1.0   timeobs
e417    32.853    1.0   timeobs
e418    33.067    1.0   timeobs
e419    33.128    1.0   timeobs
e420    33.155    1.0   timeobs
e421    33.218    1.0   timeobs
e422    33.251    1.0   timeobs
e423    33.286    1.0   timeobs
e424    33.442    1.0   timeobs
e425    33.65    1.0   timeobs
e426    33.738    1.0   timeobs
e427    33.89    1.0   timeobs
e428    35.267    1.0   timeobs
* model command line
bash simulate-curves.sh
* model input/output
curves_pars.yml.tpl  curves_pars.yml
curves_observations.ins  curves_observations.yml
* prior information
