pcf
* control data
restart  estimation
    6   204     4     0     1
    1     1 double point   1   0   0
   5.0  2.0   0.3  0.03    10
  3.0   3.0 0.001  0
  0.1
   30  0.01     4     3  0.01     3
    1     1     1
* parameter groups
sy_knot      relative 0.01  0.0  switch  2.0 parabolic
* parameter data
sy_knot_1   none relative   NaN  0.01  1    sy_knot    1.0  0.0 1
sy_knot_2   none relative   NaN  0.01  1    sy_knot    1.0  0.0 1
sy_knot_3   none relative   NaN  0.01  1    sy_knot    1.0  0.0 1
sy_knot_4   none relative   NaN  0.01  1    sy_knot    1.0  0.0 1
sy_knot_5   none relative   NaN  0.01  1    sy_knot    1.0  0.0 1
sy_knot_6   none relative   NaN  0.01  1    sy_knot    1.0  0.0 1
* observation groups
storageobs
* observation data
e1    -55.19909594896827    1.0   storageobs
e2    -55.08984788243526    1.0   storageobs
e3    -54.621268058343624    1.0   storageobs
e4    -54.152688234252    1.0   storageobs
e5    -53.68410841016037    1.0   storageobs
e6    -53.215528586068736    1.0   storageobs
e7    -52.74694876197711    1.0   storageobs
e8    -52.27836893788549    1.0   storageobs
e9    -51.80978911379386    1.0   storageobs
e10    -51.34120928970223    1.0   storageobs
e11    -50.8726294656106    1.0   storageobs
e12    -47.99098987450834    1.0   storageobs
e13    -47.621190649104484    1.0   storageobs
e14    -47.25139142370064    1.0   storageobs
e15    -46.88159219829679    1.0   storageobs
e16    -46.51179297289294    1.0   storageobs
e17    -46.141993747489096    1.0   storageobs
e18    -45.55295877847669    1.0   storageobs
e19    -45.19475829251981    1.0   storageobs
e20    -44.83655780656292    1.0   storageobs
e21    -44.47835732060604    1.0   storageobs
e22    -44.120156834649165    1.0   storageobs
e23    -43.76195634869227    1.0   storageobs
e24    -43.403755862735395    1.0   storageobs
e25    -42.24691008514598    1.0   storageobs
e26    -41.93935043412444    1.0   storageobs
e27    -41.631790783102915    1.0   storageobs
e28    -41.32423113208137    1.0   storageobs
e29    -41.016671481059845    1.0   storageobs
e30    -40.70911183003832    1.0   storageobs
e31    -40.40155217901678    1.0   storageobs
e32    -40.09399252799525    1.0   storageobs
e33    -39.78643287697371    1.0   storageobs
e34    -39.478873225952185    1.0   storageobs
e35    -39.17131357493065    1.0   storageobs
e36    -38.863753923909115    1.0   storageobs
e37    -38.55619427288759    1.0   storageobs
e38    -38.24863462186605    1.0   storageobs
e39    -37.94107497084452    1.0   storageobs
e40    -37.63351531982299    1.0   storageobs
e41    -37.32595566880145    1.0   storageobs
e42    -37.01839601777992    1.0   storageobs
e43    -36.71083636675838    1.0   storageobs
e44    -36.40327671573686    1.0   storageobs
e45    -36.09571706471532    1.0   storageobs
e46    -35.788157413693796    1.0   storageobs
e47    -35.480597762672254    1.0   storageobs
e48    -35.173038111650726    1.0   storageobs
e49    -34.86547846062919    1.0   storageobs
e50    -34.557918809607656    1.0   storageobs
e51    -34.25035915858612    1.0   storageobs
e52    -33.916433839818325    1.0   storageobs
e53    -33.6097233642263    1.0   storageobs
e54    -33.30301288863426    1.0   storageobs
e55    -32.99630241304222    1.0   storageobs
e56    -32.68959193745019    1.0   storageobs
e57    -32.38288146185815    1.0   storageobs
e58    -32.07617098626611    1.0   storageobs
e59    -31.769460510674072    1.0   storageobs
e60    -31.462750035082042    1.0   storageobs
e61    -31.156039559490004    1.0   storageobs
e62    -30.84932908389797    1.0   storageobs
e63    -34.938491835154956    1.0   storageobs
e64    -34.78093809450692    1.0   storageobs
e65    -34.6233843538589    1.0   storageobs
e66    -34.46583061321087    1.0   storageobs
e67    -34.30827687256284    1.0   storageobs
e68    -37.1660391134993    1.0   storageobs
e69    -37.111053608727225    1.0   storageobs
e70    -37.05606810395514    1.0   storageobs
e71    -37.001082599183064    1.0   storageobs
e72    -36.94609709441097    1.0   storageobs
e73    -36.89111158963889    1.0   storageobs
e74    -36.83612608486681    1.0   storageobs
e75    -36.781140580094736    1.0   storageobs
e76    -36.72615507532265    1.0   storageobs
e77    -36.67116957055056    1.0   storageobs
e78    -36.61618406577848    1.0   storageobs
e79    -36.5611985610064    1.0   storageobs
e80    -36.50621305623432    1.0   storageobs
e81    -36.45122755146224    1.0   storageobs
e82    -36.396242046690155    1.0   storageobs
e83    -36.34125654191808    1.0   storageobs
e84    -36.28627103714599    1.0   storageobs
e85    -36.23128553237391    1.0   storageobs
e86    -36.176300027601826    1.0   storageobs
e87    -36.56072009777557    1.0   storageobs
e88    -36.514970555287704    1.0   storageobs
e89    -36.469221012799835    1.0   storageobs
e90    -36.423471470311966    1.0   storageobs
e91    -36.3777219278241    1.0   storageobs
e92    -36.331972385336236    1.0   storageobs
e93    -36.28622284284837    1.0   storageobs
e94    -36.240473300360506    1.0   storageobs
e95    -36.19472375787264    1.0   storageobs
e96    -36.14897421538477    1.0   storageobs
e97    -36.1032246728969    1.0   storageobs
e98    -36.05747513040903    1.0   storageobs
e99    -36.01172558792116    1.0   storageobs
e100    -38.7818770627457    1.0   storageobs
e101    -38.47225090024854    1.0   storageobs
e102    -37.5542849013427    1.0   storageobs
e103    -37.30567976308713    1.0   storageobs
e104    -37.05707462483156    1.0   storageobs
e105    -36.80846948657599    1.0   storageobs
e106    -36.55986434832042    1.0   storageobs
e107    -40.95155864718288    1.0   storageobs
e108    -40.56955968839089    1.0   storageobs
e109    -40.1875607295989    1.0   storageobs
e110    -39.80556177080691    1.0   storageobs
e111    -39.42356281201492    1.0   storageobs
e112    -39.04156385322293    1.0   storageobs
e113    -38.65956489443095    1.0   storageobs
e114    -37.101915713603766    1.0   storageobs
e115    -37.58256373577012    1.0   storageobs
e116    -37.32795371602753    1.0   storageobs
e117    -37.07334369628494    1.0   storageobs
e118    -37.14825107698781    1.0   storageobs
e119    -36.88635296540259    1.0   storageobs
e120    -36.99674698913125    1.0   storageobs
e121    -36.72502516928437    1.0   storageobs
e122    -36.45330334943749    1.0   storageobs
e123    -36.6348225839893    1.0   storageobs
e124    -36.41230025461258    1.0   storageobs
e125    -36.189777925235866    1.0   storageobs
e126    -35.96725559585916    1.0   storageobs
e127    -35.74473326648245    1.0   storageobs
e128    -35.323428068610816    1.0   storageobs
e129    -34.76696011323934    1.0   storageobs
e130    -34.52881768232094    1.0   storageobs
e131    -34.29067525140255    1.0   storageobs
e132    -34.05253282048414    1.0   storageobs
e133    -33.814390389565744    1.0   storageobs
e134    -33.57624795864734    1.0   storageobs
e135    -33.33810552772895    1.0   storageobs
e136    -33.09996309681055    1.0   storageobs
e137    -32.861820665892154    1.0   storageobs
e138    -32.62367823497375    1.0   storageobs
e139    -32.38553580405535    1.0   storageobs
e140    -32.14739337313696    1.0   storageobs
e141    -31.90925094221856    1.0   storageobs
e142    -31.671108511300158    1.0   storageobs
e143    -31.432966080381764    1.0   storageobs
e144    -31.19482364946336    1.0   storageobs
e145    -30.956681218544965    1.0   storageobs
e146    -30.718538787626567    1.0   storageobs
e147    -30.480396356708166    1.0   storageobs
e148    -30.242253925789772    1.0   storageobs
e149    -30.00411149487137    1.0   storageobs
e150    -29.765969063952976    1.0   storageobs
e151    -29.52782663303458    1.0   storageobs
e152    -30.023220472454508    1.0   storageobs
e153    -29.728694684210858    1.0   storageobs
e154    -29.4341688959672    1.0   storageobs
e155    -29.13964310772355    1.0   storageobs
e156    -28.845117319479897    1.0   storageobs
e157    -29.061689891711566    1.0   storageobs
e158    -28.718603280979195    1.0   storageobs
e159    -28.375516670246828    1.0   storageobs
e160    -28.032430059514454    1.0   storageobs
e161    -27.689343448782086    1.0   storageobs
e162    -27.34625683804972    1.0   storageobs
e163    -27.003170227317344    1.0   storageobs
e164    -26.660083616584977    1.0   storageobs
e165    -25.656607223624647    1.0   storageobs
e166    -25.278827544742086    1.0   storageobs
e167    -24.901047865859518    1.0   storageobs
e168    -24.523268186976956    1.0   storageobs
e169    -24.145488508094388    1.0   storageobs
e170    -23.76770882921182    1.0   storageobs
e171    -22.903301362910604    1.0   storageobs
e172    -22.492479489819495    1.0   storageobs
e173    -22.08165761672839    1.0   storageobs
e174    -21.670835743637276    1.0   storageobs
e175    -21.260013870546175    1.0   storageobs
e176    -20.849191997455062    1.0   storageobs
e177    -20.438370124363956    1.0   storageobs
e178    -20.02754825127285    1.0   storageobs
e179    -17.90569072956424    1.0   storageobs
e180    -16.887248869233552    1.0   storageobs
e181    -16.384094674703142    1.0   storageobs
e182    -15.88094048017273    1.0   storageobs
e183    -15.377786285642316    1.0   storageobs
e184    -14.874632091111902    1.0   storageobs
e185    -14.371477896581487    1.0   storageobs
e186    -13.868323702051075    1.0   storageobs
e187    -13.365169507520662    1.0   storageobs
e188    -12.862015312990252    1.0   storageobs
e189    -13.03426873493309    1.0   storageobs
e190    -13.76731725742538    1.0   storageobs
e191    -13.402321093262202    1.0   storageobs
e192    -13.037324929099029    1.0   storageobs
e193    -19.512291428926936    1.0   storageobs
e194    -19.30552465597796    1.0   storageobs
e195    -26.464297773339386    1.0   storageobs
e196    -24.39322377043679    1.0   storageobs
e197    -22.322149767534196    1.0   storageobs
e198    -20.2510757646316    1.0   storageobs
e199    -18.180001761729006    1.0   storageobs
e200    -16.10892775882641    1.0   storageobs
e201    -14.037853755923814    1.0   storageobs
e202    -6.140176240488403    1.0   storageobs
e203    -3.0700881202442005    1.0   storageobs
e204    0.0    1.0   storageobs
* model command line
bash simulate-rise.sh
* model input/output
rise_pars.yml.tpl  rise_pars.yml
rise_observations.ins  rise_observations.yml
* prior information
